data_image0
_chemical_formula_structural       Al2H22C24O12Al2H22C24O12
_chemical_formula_sum              "Al4 H44 C48 O24"
_cell_length_a       13.30073766
_cell_length_b       11.01424767
_cell_length_c       15.29370737
_cell_angle_alpha    85.77571436000001
_cell_angle_beta     77.57116058
_cell_angle_gamma    72.38022812

_space_group_name_H-M_alt    "P 1"
_space_group_IT_number       1

loop_
  _space_group_symop_operation_xyz
  'x, y, z'

loop_
  _atom_site_type_symbol
  _atom_site_label
  _atom_site_symmetry_multiplicity
  _atom_site_fract_x
  _atom_site_fract_y
  _atom_site_fract_z
  _atom_site_occupancy
  Al  Al1       1.0  0.2530094450000001  0.49486387  0.4985534900000001  1.0000
  Al  Al2       1.0  0.499761975  0.50382965  0.50150968  1.0000
  H   H1        1.0  0.14168526500000006  0.36128  0.56546735  1.0000
  H   H2        1.0  0.352015455  0.64285736  0.44205037000000014  1.0000
  H   H3        1.0  0.4210164999999999  0.60430376  0.7786628800000002  1.0000
  H   H4        1.0  0.02528975999999998  0.5283802100000001  0.23223326000000002  1.0000
  H   H5        1.0  0.36561821999999994  0.40869803000000005  0.22579918000000004  1.0000
  H   H6        1.0  0.40099261999999997  0.41306242000000004  0.05822227000000001  1.0000
  H   H7        1.0  0.18522960499999994  0.4162270700000001  0.7644788400000002  1.0000
  H   H8        1.0  0.14555830499999994  0.39707844000000003  0.9311335200000003  1.0000
  H   H9        1.0  0.04230483999999996  0.88477772  0.3556886100000001  1.0000
  H   H10       1.0  0.41438342000000006  0.8953765200000001  0.4234350100000001  1.0000
  H   H11       1.0  0.37348278999999995  0.1173338  0.4076501200000001  1.0000
  H   H12       1.0  0.007906419999999964  0.10548145000000003  0.3544722000000001  1.0000
  H   H13       1.0  0.32507689999999995  0.10293488  0.57581038  1.0000
  H   H14       1.0  0.41535794999999986  0.11423032000000001  0.6423471400000003  1.0000
  H   H15       1.0  0.38888879499999995  0.88105003  0.5912615900000002  1.0000
  H   H16       1.0  0.49176563000000006  0.89373697  0.6433684200000002  1.0000
  H   H17       1.0  0.19262172999999988  0.8975491200000002  0.43085199  1.0000
  H   H18       1.0  0.17810853499999996  0.8827668200000001  0.54794476  1.0000
  H   H19       1.0  0.10755784999999995  0.10346915000000001  0.5658036300000002  1.0000
  H   H20       1.0  0.142532675  0.1185592  0.4487082500000001  1.0000
  H   H21       1.0  0.43967909500000013  0.63538636  0.92079169  1.0000
  H   H22       1.0  0.47564868  0.5666793700000001  0.09508367  1.0000
  C   C1        1.0  0.43499353  0.26858304  0.49964153000000006  1.0000
  C   C2        1.0  0.333681235  0.5139463000000001  0.66215059  1.0000
  C   C3        1.0  0.07210204999999999  0.7306590600000001  0.4992751800000001  1.0000
  C   C4        1.0  0.16917341999999996  0.4768113600000001  0.3382943600000001  1.0000
  C   C5        1.0  0.3059841699999999  0.5103632  0.7619200000000003  1.0000
  C   C6        1.0  0.19317612500000003  0.47045442000000004  0.23854891000000006  1.0000
  C   C7        1.0  0.3597080899999999  0.56008708  0.81273819  1.0000
  C   C8        1.0  0.3336180149999999  0.55514094  0.9061334300000002  1.0000
  C   C9        1.0  0.107710995  0.50458682  0.19327392000000004  1.0000
  C   C10       1.0  0.12752691500000002  0.51287557  0.09994389000000002  1.0000
  C   C11       1.0  0.299608165  0.43737294  0.18980494000000006  1.0000
  C   C12       1.0  0.31860878499999995  0.44170192000000014  0.09678297  1.0000
  C   C13       1.0  0.22675990000000001  0.45401074  0.80496448  1.0000
  C   C14       1.0  0.204382595  0.44484746  0.8978591000000002  1.0000
  C   C15       1.0  0.25693639  0.49421981  0.9507708200000002  1.0000
  C   C16       1.0  0.23415058500000008  0.48265789000000003  0.049547590000000016  1.0000
  C   C17       1.0  0.48646396000000003  0.9269052000000002  0.41736972  1.0000
  C   C18       1.0  0.457823905  0.07400182  0.4133602200000001  1.0000
  C   C19       1.0  0.475809265  0.12403643000000003  0.4987775800000001  1.0000
  C   C20       1.0  0.41026623000000007  0.07195372  0.58104749  1.0000
  C   C21       1.0  0.45418017999999993  0.9248496400000001  0.58489623  1.0000
  C   C22       1.0  0.03887250999999993  0.8753933800000002  0.49886655000000013  1.0000
  C   C23       1.0  0.13513085999999994  0.9269317700000002  0.4944467  1.0000
  C   C24       1.0  0.09594057499999994  0.07382598000000001  0.5024556600000002  1.0000
  O   O1        1.0  0.3373630550000001  0.31972375  0.4926464700000001  1.0000
  O   O2        1.0  0.42451358999999994  0.5296917100000001  0.6252907800000002  1.0000
  O   O3        1.0  0.49973602  0.67813112  0.49614962  1.0000
  O   O4        1.0  0.24483097000000004  0.4827042200000001  0.3752592700000001  1.0000
  O   O5        1.0  0.16953254499999998  0.6712794600000003  0.5021229900000003  1.0000
  O   O6        1.0  0.07378662  0.48056643  0.3781268  1.0000
  O   O7        1.0  0.49962806000000015  0.32915792  0.5087849  1.0000
  O   O8        1.0  0.26440871499999996  0.4978886000000001  0.6216946000000002  1.0000
  O   O9        1.0  0.12911516999999997  0.4467021700000001  0.54052576  1.0000
  O   O10       1.0  0.3722645750000001  0.5538846600000001  0.45985984000000013  1.0000
  O   O11       1.0  0.37941762  0.61089775  0.9578620000000002  1.0000
  O   O12       1.0  0.04522910499999999  0.55380096  0.054163980000000014  1.0000
  Al  Al3       1.0  0.7530094449999999  0.49486387  0.4985534900000001  1.0000
  Al  Al4       1.0  0.999761975  0.50382965  0.50150968  1.0000
  H   H23       1.0  0.6416852650000001  0.36128  0.56546735  1.0000
  H   H24       1.0  0.852015455  0.64285736  0.44205037000000014  1.0000
  H   H25       1.0  0.9210164999999999  0.60430376  0.7786628800000002  1.0000
  H   H26       1.0  0.5252897600000002  0.5283802100000001  0.23223326000000002  1.0000
  H   H27       1.0  0.8656182200000001  0.40869803000000005  0.22579918000000004  1.0000
  H   H28       1.0  0.90099262  0.41306242000000004  0.05822227000000001  1.0000
  H   H29       1.0  0.685229605  0.4162270700000001  0.7644788400000002  1.0000
  H   H30       1.0  0.645558305  0.39707844000000003  0.9311335200000003  1.0000
  H   H31       1.0  0.5423048399999999  0.88477772  0.3556886100000001  1.0000
  H   H32       1.0  0.91438342  0.8953765200000001  0.4234350100000001  1.0000
  H   H33       1.0  0.8734827900000001  0.1173338  0.4076501200000001  1.0000
  H   H34       1.0  0.50790642  0.10548145000000003  0.3544722000000001  1.0000
  H   H35       1.0  0.8250768999999999  0.10293488  0.57581038  1.0000
  H   H36       1.0  0.91535795  0.11423032000000001  0.6423471400000003  1.0000
  H   H37       1.0  0.8888887949999998  0.88105003  0.5912615900000002  1.0000
  H   H38       1.0  0.9917656300000003  0.89373697  0.6433684200000002  1.0000
  H   H39       1.0  0.6926217299999998  0.8975491200000002  0.43085199  1.0000
  H   H40       1.0  0.6781085349999999  0.8827668200000001  0.54794476  1.0000
  H   H41       1.0  0.60755785  0.10346915000000001  0.5658036300000002  1.0000
  H   H42       1.0  0.642532675  0.1185592  0.4487082500000001  1.0000
  H   H43       1.0  0.9396790950000002  0.63538636  0.92079169  1.0000
  H   H44       1.0  0.9756486799999999  0.5666793700000001  0.09508367  1.0000
  C   C25       1.0  0.9349935300000001  0.26858304  0.49964153000000006  1.0000
  C   C26       1.0  0.833681235  0.5139463000000001  0.66215059  1.0000
  C   C27       1.0  0.57210205  0.7306590600000001  0.4992751800000001  1.0000
  C   C28       1.0  0.66917342  0.4768113600000001  0.3382943600000001  1.0000
  C   C29       1.0  0.8059841699999999  0.5103632  0.7619200000000003  1.0000
  C   C30       1.0  0.6931761249999998  0.47045442000000004  0.23854891000000006  1.0000
  C   C31       1.0  0.8597080899999999  0.56008708  0.81273819  1.0000
  C   C32       1.0  0.833618015  0.55514094  0.9061334300000002  1.0000
  C   C33       1.0  0.6077109949999999  0.50458682  0.19327392000000004  1.0000
  C   C34       1.0  0.627526915  0.51287557  0.09994389000000002  1.0000
  C   C35       1.0  0.799608165  0.43737294  0.18980494000000006  1.0000
  C   C36       1.0  0.818608785  0.44170192000000014  0.09678297  1.0000
  C   C37       1.0  0.7267599  0.45401074  0.80496448  1.0000
  C   C38       1.0  0.704382595  0.44484746  0.8978591000000002  1.0000
  C   C39       1.0  0.75693639  0.49421981  0.9507708200000002  1.0000
  C   C40       1.0  0.7341505850000001  0.48265789000000003  0.049547590000000016  1.0000
  C   C41       1.0  0.9864639599999999  0.9269052000000002  0.41736972  1.0000
  C   C42       1.0  0.9578239049999999  0.07400182  0.4133602200000001  1.0000
  C   C43       1.0  0.9758092650000001  0.12403643000000003  0.4987775800000001  1.0000
  C   C44       1.0  0.9102662300000001  0.07195372  0.58104749  1.0000
  C   C45       1.0  0.95418018  0.9248496400000001  0.58489623  1.0000
  C   C46       1.0  0.53887251  0.8753933800000002  0.49886655000000013  1.0000
  C   C47       1.0  0.6351308599999999  0.9269317700000002  0.4944467  1.0000
  C   C48       1.0  0.5959405749999999  0.07382598000000001  0.5024556600000002  1.0000
  O   O13       1.0  0.837363055  0.31972375  0.4926464700000001  1.0000
  O   O14       1.0  0.92451359  0.5296917100000001  0.6252907800000002  1.0000
  O   O15       1.0  0.9997360200000001  0.67813112  0.49614962  1.0000
  O   O16       1.0  0.7448309700000001  0.4827042200000001  0.3752592700000001  1.0000
  O   O17       1.0  0.6695325449999998  0.6712794600000003  0.5021229900000003  1.0000
  O   O18       1.0  0.57378662  0.48056643  0.3781268  1.0000
  O   O19       1.0  0.99962806  0.32915792  0.5087849  1.0000
  O   O20       1.0  0.764408715  0.4978886000000001  0.6216946000000002  1.0000
  O   O21       1.0  0.62911517  0.4467021700000001  0.54052576  1.0000
  O   O22       1.0  0.8722645750000001  0.5538846600000001  0.45985984000000013  1.0000
  O   O23       1.0  0.8794176200000001  0.61089775  0.9578620000000002  1.0000
  O   O24       1.0  0.5452291050000002  0.55380096  0.054163980000000014  1.0000
