data_image0
_chemical_formula_structural       Al16H96C128N16O80
_chemical_formula_sum              "Al16 H96 C128 N16 O80"
_cell_length_a       21.6116
_cell_length_b       21.61518
_cell_length_c       10.18042
_cell_angle_alpha    89.73663999999998
_cell_angle_beta     89.71647
_cell_angle_gamma    90.60553000000002

_space_group_name_H-M_alt    "P 1"
_space_group_IT_number       1

loop_
  _space_group_symop_operation_xyz
  'x, y, z'

loop_
  _atom_site_type_symbol
  _atom_site_label
  _atom_site_symmetry_multiplicity
  _atom_site_fract_x
  _atom_site_fract_y
  _atom_site_fract_z
  _atom_site_occupancy
  Al  Al1       1.0  0.7426822410435021  0.4341936299103936  0.7236725815783343  1.0000
  Al  Al2       1.0  0.745104864933075  0.5725552677271267  0.22245202677489334  1.0000
  Al  Al3       1.0  0.8210220414673712  0.5096719316827889  0.956928320310866  1.0000
  Al  Al4       1.0  0.6698366766759624  0.49658236998233124  0.46777577173678103  1.0000
  Al  Al5       1.0  0.24703454245599554  0.9266512935283543  0.2839069668973042  1.0000
  Al  Al6       1.0  0.2543649563598088  0.06941734463145137  0.7873478221435499  1.0000
  Al  Al7       1.0  0.3249140717738493  0.995066288123978  0.539029523643937  1.0000
  Al  Al8       1.0  0.1787355785060265  0.0036127271215722345  0.037812539326894656  1.0000
  Al  Al9       1.0  0.245460219007506  0.5703609999858889  0.22845368273779876  1.0000
  Al  Al10      1.0  0.24674670105616633  0.42680700816857636  0.7376804729233704  1.0000
  Al  Al11      1.0  0.17293303917523953  0.49677115138926614  0.9815282429669681  1.0000
  Al  Al12      1.0  0.3160309230232305  0.4967437508609686  0.48627932681566866  1.0000
  Al  Al13      1.0  0.7539811283925054  0.07607366758013409  0.7728013266551411  1.0000
  Al  Al14      1.0  0.7535015374915257  0.9283503924929943  0.2727331212066153  1.0000
  Al  Al15      1.0  0.6867179894167984  0.9988437894133494  0.5300217780075512  1.0000
  Al  Al16      1.0  0.8217947149964271  0.007927314864539792  0.023224208822778317  1.0000
  H   H1        1.0  0.6104782074448452  0.26243018838847126  0.09404717584173512  1.0000
  H   H2        1.0  0.8906326204895549  0.7285320033760775  0.6021724536643652  1.0000
  H   H3        1.0  0.9738195684532802  0.3416115887039233  0.34860158379622935  1.0000
  H   H4        1.0  0.53602184237276  0.6520755474393407  0.87043328890406  1.0000
  H   H5        1.0  0.8849786597612954  0.3298051498904661  0.36774153789820463  1.0000
  H   H6        1.0  0.6645210521113413  0.6919763528070871  0.9496390777694459  1.0000
  H   H7        1.0  0.5243097051335895  0.3982761920651041  0.160218001621954  1.0000
  H   H8        1.0  0.9547603809488061  0.5940430807444742  0.6517327105316583  1.0000
  H   H9        1.0  0.13349130130643563  0.7890273010074685  0.5737956186083282  1.0000
  H   H10       1.0  0.391151173568777  0.19309974272369237  0.11131669739465404  1.0000
  H   H11       1.0  0.4610657231734231  0.9014535916638745  0.8592075620360853  1.0000
  H   H12       1.0  0.034270348417193654  0.07535152630441758  0.3123332047867484  1.0000
  H   H13       1.0  0.35922959004128296  0.7536299790820953  0.9427055920125995  1.0000
  H   H14       1.0  0.14687864360480402  0.23334387545455787  0.45556430642957907  1.0000
  H   H15       1.0  0.02904999818971549  0.8706310939013495  0.6878800740625551  1.0000
  H   H16       1.0  0.4660001014145798  0.14017490380605485  0.17542499294426514  1.0000
  H   H17       1.0  0.3416200696757595  0.6772334616153395  0.9120565615842667  1.0000
  H   H18       1.0  0.16558338935930003  0.3067623171215721  0.43349299606763264  1.0000
  H   H19       1.0  0.024148860571376673  0.6110104521537234  0.6489843961259627  1.0000
  H   H20       1.0  0.4501810078587719  0.4084765171978591  0.16264925500225527  1.0000
  H   H21       1.0  0.09469000145330053  0.7249189394806388  0.614340740975718  1.0000
  H   H22       1.0  0.38793936794499656  0.26969159874231924  0.09864082305697619  1.0000
  H   H23       1.0  0.460104834390142  0.6714413266347823  0.8986447163623843  1.0000
  H   H24       1.0  0.05117529257426932  0.33380082238548203  0.3761125485647701  1.0000
  H   H25       1.0  0.8924159516824045  0.25108820031085716  0.39570849927669954  1.0000
  H   H26       1.0  0.6402482949527828  0.766172644178442  0.9290906669908294  1.0000
  H   H27       1.0  0.5393101912416494  0.15127017351699476  0.15772790550151816  1.0000
  H   H28       1.0  0.959037154071494  0.8427411214954602  0.6556871886367178  1.0000
  H   H29       1.0  0.6573709620621014  0.20517131153510468  0.057614711410863634  1.0000
  H   H30       1.0  0.8847455479641817  0.802316892312963  0.6003556389996804  1.0000
  H   H31       1.0  0.964353535572114  0.10216339040997063  0.3364941224894943  1.0000
  H   H32       1.0  0.5347463019170082  0.8818070795390951  0.8722067359889207  1.0000
  H   H33       1.0  0.730817188567834  0.25123021616986324  0.6069778121530023  1.0000
  H   H34       1.0  0.7570834727613758  0.7585155508455218  0.08832344016296893  1.0000
  H   H35       1.0  0.9919394320649249  0.4985146161287604  0.8204420261309806  1.0000
  H   H36       1.0  0.4921330772067477  0.5148656238013918  0.32988932721233416  1.0000
  H   H37       1.0  0.7767842394276675  0.23761722437830693  0.8826239510536477  1.0000
  H   H38       1.0  0.7279741875329048  0.7531984995693651  0.3985760678963836  1.0000
  H   H39       1.0  0.5007964337241857  0.47747599794864365  0.6169555617410024  1.0000
  H   H40       1.0  0.00835119250101598  0.5158051329228059  0.12271639653742313  1.0000
  H   H41       1.0  0.2251603129477412  0.7459470765964278  0.11735566898469382  1.0000
  H   H42       1.0  0.2621194802811143  0.2484813493483552  0.6142038603635694  1.0000
  H   H43       1.0  0.5078361396963206  0.9783254114947375  0.4089791928443468  1.0000
  H   H44       1.0  0.011618129181402148  0.02875711880444626  0.880018102620106  1.0000
  H   H45       1.0  0.25658182363508714  0.7531454697814358  0.4049371416774082  1.0000
  H   H46       1.0  0.21606978464369986  0.24530582429608375  0.888302052985595  1.0000
  H   H47       1.0  0.0041134735683108214  0.9752752887501784  0.160485345477817  1.0000
  H   H48       1.0  0.49962830716723333  0.03184258319596818  0.6644579778797394  1.0000
  H   H49       1.0  0.6567872057924463  0.32930533997095063  0.24869083592171248  1.0000
  H   H50       1.0  0.8735365389649278  0.6675770575069142  0.8073445504314296  1.0000
  H   H51       1.0  0.9056213951649668  0.41203230820817666  0.474877354629802  1.0000
  H   H52       1.0  0.5930000773224975  0.5849932009671738  0.9958465373053695  1.0000
  H   H53       1.0  0.8591767201113598  0.36705845709769624  0.17230160285226773  1.0000
  H   H54       1.0  0.6693228091604755  0.6303845148927135  0.7163448171449035  1.0000
  H   H55       1.0  0.5900793180643255  0.43385205304228464  0.9923527804996184  1.0000
  H   H56       1.0  0.8942163439918077  0.5880222160456229  0.4391153789746787  1.0000
  H   H57       1.0  0.13356406225359913  0.8558553332675806  0.8282404136271408  1.0000
  H   H58       1.0  0.3624399451035826  0.14668618152007423  0.32196102557837614  1.0000
  H   H59       1.0  0.4018192515117886  0.9149233145946654  0.06533711895432258  1.0000
  H   H60       1.0  0.10634674387974317  0.07027120611737595  0.5171591280918234  1.0000
  H   H61       1.0  0.34724271102894133  0.831583247974582  0.7396310847592862  1.0000
  H   H62       1.0  0.17888545601722686  0.15909263889062808  0.26121682497240684  1.0000
  H   H63       1.0  0.09064154093906641  0.9185354839502652  0.5298909120206777  1.0000
  H   H64       1.0  0.40276268897942147  0.07903568449919751  0.019856250316199642  1.0000
  H   H65       1.0  0.3311424422207363  0.6308106657629478  0.6817272008133404  1.0000
  H   H66       1.0  0.16144448225366625  0.3611291860317968  0.21673326350069053  1.0000
  H   H67       1.0  0.09113533636071056  0.5967702787120363  0.4636968489424833  1.0000
  H   H68       1.0  0.3963107420823366  0.39925054190393605  0.9522268636634554  1.0000
  H   H69       1.0  0.14541199031145347  0.657960734695536  0.7733944671337478  1.0000
  H   H70       1.0  0.3478242645321008  0.34106045080819714  0.29464542955167844  1.0000
  H   H71       1.0  0.39750023705103854  0.6136844590302187  0.019750319217883172  1.0000
  H   H72       1.0  0.09747198814267505  0.3783752944172595  0.5421249456792909  1.0000
  H   H73       1.0  0.8619297809210025  0.16967809610330598  0.22369271931519144  1.0000
  H   H74       1.0  0.6529191495216153  0.8280950957277029  0.7502471164402175  1.0000
  H   H75       1.0  0.6033930103592748  0.0921679869642377  0.006608623126260316  1.0000
  H   H76       1.0  0.8971003004743648  0.8982567790690822  0.49307149687411533  1.0000
  H   H77       1.0  0.6700224636604528  0.13431604711041825  0.29784397151715025  1.0000
  H   H78       1.0  0.849743860031638  0.8640183470651231  0.7865164944491929  1.0000
  H   H79       1.0  0.9083688996142516  0.0983712750412682  0.5333963079282134  1.0000
  H   H80       1.0  0.5997940008964235  0.9068039656829934  0.06584900550944538  1.0000
  H   H81       1.0  0.2478094110626906  0.5308689413190805  0.8045696363135311  1.0000
  H   H82       1.0  0.21644007511215155  0.4978668228509769  0.5635883476585994  1.0000
  H   H83       1.0  0.2427805418851678  0.4676626540094533  0.3204672089626298  1.0000
  H   H84       1.0  0.278631892832356  0.5040817196685565  0.06391706916850372  1.0000
  H   H85       1.0  0.7234613996343955  0.5062000158680666  0.029414957610348645  1.0000
  H   H86       1.0  0.7381123287003362  0.4662787963730378  0.3039628326154351  1.0000
  H   H87       1.0  0.7686066780142745  0.4880364103918431  0.529197264530985  1.0000
  H   H88       1.0  0.7630591648079468  0.5371380805675497  0.7760701836469774  1.0000
  H   H89       1.0  0.2430429929646086  0.967156154497138  0.864785043992402  1.0000
  H   H90       1.0  0.27680172398076386  0.9925317880903897  0.11228759523962137  1.0000
  H   H91       1.0  0.2569747815514615  0.03292422013353665  0.38334278039268926  1.0000
  H   H92       1.0  0.22789330803710736  0.9905662110346055  0.6359818794049074  1.0000
  H   H93       1.0  0.7829281859326188  0.9926314343857255  0.6321360172006356  1.0000
  H   H94       1.0  0.7268023063793819  0.008006041667577722  0.11413133868713932  1.0000
  H   H95       1.0  0.7417119661440271  0.9791224445820752  0.86169372993727  1.0000
  H   H96       1.0  0.7645133458633012  0.022640163273197178  0.3762449872145646  1.0000
  C   C1        1.0  0.7027750290442774  0.36094173404020996  0.4966158350982277  1.0000
  C   C2        1.0  0.7934028717838537  0.6424951843553782  0.006630383219963761  1.0000
  C   C3        1.0  0.8801691422087412  0.4607797313059944  0.7278229912833591  1.0000
  C   C4        1.0  0.6109296923587504  0.5336192016927828  0.2337977819095622  1.0000
  C   C5        1.0  0.8022637349501454  0.3724555987434103  0.9391183488721457  1.0000
  C   C6        1.0  0.7046217286984193  0.6296541300288074  0.4641614563976376  1.0000
  C   C7        1.0  0.6118365826367071  0.4570370630898683  0.717824282351983  1.0000
  C   C8        1.0  0.8821189143698918  0.5453999997985293  0.1937630549653064  1.0000
  C   C9        1.0  0.20092440866243594  0.8657656133759793  0.04491083856523033  1.0000
  C   C10       1.0  0.30220424407300367  0.13013973282057237  0.5598568379893809  1.0000
  C   C11       1.0  0.3879561403898963  0.9520804134835746  0.3198199280158454  1.0000
  C   C12       1.0  0.12187018949140721  0.04269088067884256  0.7850815038744746  1.0000
  C   C13       1.0  0.2927908301640756  0.8578649364277777  0.5106137698465325  1.0000
  C   C14       1.0  0.2059288873549576  0.13369599567827495  0.017613376610481568  1.0000
  C   C15       1.0  0.11854837830906567  0.9576122878524761  0.28137487939988776  1.0000
  C   C16       1.0  0.3866776779755521  0.0385784647018433  0.7735627617123003  1.0000
  C   C17       1.0  0.28535486814505706  0.6300775908137562  0.46547903850079614  1.0000
  C   C18       1.0  0.20476691110938944  0.3668446338034041  0.9678841984569886  1.0000
  C   C19       1.0  0.1117752570748401  0.5421842543428047  0.22025527600158742  1.0000
  C   C20       1.0  0.38174679473643003  0.45282760131297084  0.7056739063059027  1.0000
  C   C21       1.0  0.19827623322706478  0.635024550834576  0.008149959681081577  1.0000
  C   C22       1.0  0.2882811247563063  0.36140971668086125  0.5071151911036886  1.0000
  C   C23       1.0  0.3768350381666242  0.5434518992495992  0.24756247630686998  1.0000
  C   C24       1.0  0.11373650795530442  0.4552563890314812  0.750068256238693  1.0000
  C   C25       1.0  0.8074257825886827  0.14245707417973424  0.9930572116829691  1.0000
  C   C26       1.0  0.7077011021410977  0.8593159856493157  0.5112782960589264  1.0000
  C   C27       1.0  0.6192360705615615  0.05669072464780083  0.7590922962739127  1.0000
  C   C28       1.0  0.8879142977205353  0.9466420797067563  0.23724483703246152  1.0000
  C   C29       1.0  0.7139592212791356  0.13239942800053836  0.5302577540651284  1.0000
  C   C30       1.0  0.790096971696207  0.8734713591712625  0.021128667405335793  1.0000
  C   C31       1.0  0.8910518660877826  0.048936988990731005  0.7909485895957438  1.0000
  C   C32       1.0  0.6206079220725851  0.9501283992095869  0.29833959707165225  1.0000
  C   C33       1.0  0.7186951085662729  0.24686928272324987  0.5040387186251171  1.0000
  C   C34       1.0  0.784450795684159  0.757702686717564  0.003112648637256048  1.0000
  C   C35       1.0  0.9967966469597141  0.46848437545765853  0.7309039715384107  1.0000
  C   C36       1.0  0.495279720732051  0.5369440590621251  0.2373827372724126  1.0000
  C   C37       1.0  0.8021505838442259  0.25304903533925965  0.9703253760181084  1.0000
  C   C38       1.0  0.711184626916364  0.7468734675862784  0.4996948674516101  1.0000
  C   C39       1.0  0.496579318844469  0.46180761185460045  0.719453475677984  1.0000
  C   C40       1.0  0.002079332560722002  0.5368305995680759  0.2192246032134174  1.0000
  C   C41       1.0  0.19983367410098196  0.7480886112011372  0.026840452417583163  1.0000
  C   C42       1.0  0.2884471686944361  0.2441135138569914  0.5256370975184225  1.0000
  C   C43       1.0  0.5043274173690987  0.9585203349547702  0.31426546823371926  1.0000
  C   C44       1.0  0.006625039828458634  0.04520355000321213  0.7766079439943167  1.0000
  C   C45       1.0  0.2773758638092683  0.7453891375923737  0.4962451610999639  1.0000
  C   C46       1.0  0.20568637189967104  0.2500898821722001  0.9912882645161851  1.0000
  C   C47       1.0  0.0025673879267382738  0.9539878491541841  0.26290867531094847  1.0000
  C   C48       1.0  0.5009376034777029  0.04150686366220033  0.7717850907357716  1.0000
  C   C49       1.0  0.6984157133286691  0.29945931564745193  0.4336162983415196  1.0000
  C   C50       1.0  0.8071587535732945  0.7026833487380294  0.9473561379955076  1.0000
  C   C51       1.0  0.9431397090071804  0.45236513458611466  0.6615301716533699  1.0000
  C   C52       1.0  0.551745048563401  0.5459398942746156  0.17084348205031621  1.0000
  C   C53       1.0  0.8137428466593035  0.3142554048986886  0.01570429759277678  1.0000
  C   C54       1.0  0.6969203285982564  0.6854607209573736  0.5529892645885606  1.0000
  C   C55       1.0  0.5517497685220237  0.4535065980179119  0.7938986282267918  1.0000
  C   C56       1.0  0.9432935897680895  0.5574320223709144  0.26819917526204784  1.0000
  C   C57       1.0  0.18247480943870145  0.8081513020752136  0.9722405120755164  1.0000
  C   C58       1.0  0.3127993131905404  0.18737978788960777  0.4890701070494322  1.0000
  C   C59       1.0  0.44726509816166177  0.9486408498850684  0.25382077592751334  1.0000
  C   C60       1.0  0.06344451333636696  0.047514841846897686  0.7029669192421255  1.0000
  C   C61       1.0  0.30176019777341  0.7957304060189586  0.5678669308651348  1.0000
  C   C62       1.0  0.197349731584675  0.19671787930503015  0.07266832045681046  1.0000
  C   C63       1.0  0.05528346854842056  0.9495077387078872  0.3469561019651967  1.0000
  C   C64       1.0  0.4471606758024773  0.05303378802399113  0.8385962958202499  1.0000
  C   C65       1.0  0.2929490326768822  0.6876944526171171  0.5420563575370083  1.0000
  C   C66       1.0  0.19732789018141966  0.3093518904020404  0.05247568021497303  1.0000
  C   C67       1.0  0.0537732932781608  0.5542232400929168  0.2911024488667021  1.0000
  C   C68       1.0  0.4412596708110761  0.4459860327683616  0.7781667545152264  1.0000
  C   C69       1.0  0.18562900121127818  0.6964063533277869  0.9521772349009591  1.0000
  C   C70       1.0  0.3045142214357544  0.2981696082088157  0.45409862289694136  1.0000
  C   C71       1.0  0.4360715972247114  0.5541093751196581  0.1756384644999562  1.0000
  C   C72       1.0  0.053153801915558144  0.4448127682692751  0.6812791038631054  1.0000
  C   C73       1.0  0.8233546754792772  0.20344316793819534  0.03997165933015299  1.0000
  C   C74       1.0  0.6964608936524577  0.7971384708431534  0.5750856295042001  1.0000
  C   C75       1.0  0.5577803101272035  0.05940954138732442  0.8310030882822067  1.0000
  C   C76       1.0  0.9467809044280664  0.9328770792849288  0.31146555850015084  1.0000
  C   C77       1.0  0.7096289122645455  0.18919159280562983  0.4460655088292973  1.0000
  C   C78       1.0  0.8027075899657486  0.8158713064721073  0.9497460237595745  1.0000
  C   C79       1.0  0.9513804941718643  0.059454842959740725  0.7149614179688564  1.0000
  C   C80       1.0  0.557693502598118  0.9417603647784022  0.24217613036002505  1.0000
  C   C81       1.0  0.6713626228991164  0.2889236534612551  0.3066501559900478  1.0000
  C   C82       1.0  0.8521434702795573  0.7075389689063614  0.8448503951244346  1.0000
  C   C83       1.0  0.9473053221080313  0.41902995135669935  0.5402695894765877  1.0000
  C   C84       1.0  0.5507869840801586  0.5778013779911689  0.046910316898541526  1.0000
  C   C85       1.0  0.8451364546184743  0.32202512860013605  0.13575059441058812  1.0000
  C   C86       1.0  0.6732614500050346  0.6773832635860789  0.675671396523854  1.0000
  C   C87       1.0  0.5492110759018454  0.4331847402785276  0.924818331214761  1.0000
  C   C88       1.0  0.9400961527163056  0.5792080355000039  0.3977882148525931  1.0000
  C   C89       1.0  0.14762675913779763  0.8103159507146053  0.8545115100054088  1.0000
  C   C90       1.0  0.342372706091197  0.18769843856646562  0.3632317290387679  1.0000
  C   C91       1.0  0.4453662486292073  0.9255975369712929  0.11873688450697863  1.0000
  C   C92       1.0  0.06370306682549312  0.06489245409757886  0.5725661802835739  1.0000
  C   C93       1.0  0.33083301652658564  0.7907987496138258  0.6914770999325718  1.0000
  C   C94       1.0  0.18446201862098133  0.20293683312006192  0.2095923296541315  1.0000
  C   C95       1.0  0.05090862846036135  0.924412332575543  0.4696497061867202  1.0000
  C   C96       1.0  0.4472399146851839  0.07352717419608837  0.9690474729568175  1.0000
  C   C97       1.0  0.3224991161579905  0.6806071231225053  0.6621547329744834  1.0000
  C   C98       1.0  0.17634655333464386  0.3140970040161556  0.18339139015186548  1.0000
  C   C99       1.0  0.05131641794479425  0.5833414308659347  0.41398698870841805  1.0000
  C   C100      1.0  0.4384599556607817  0.41526494255620905  0.9038518140990516  1.0000
  C   C101      1.0  0.1572522660216143  0.7016510710283193  0.8288764236592748  1.0000
  C   C102      1.0  0.3358279324412093  0.2969635603722961  0.33265335547733443  1.0000
  C   C103      1.0  0.4381736743811148  0.5906644989805998  0.06245995915365132  1.0000
  C   C104      1.0  0.05773593143251239  0.40607872301256  0.5731334214301539  1.0000
  C   C105      1.0  0.8510104661411595  0.21299186234710396  0.16700678176176215  1.0000
  C   C106      1.0  0.6692622038623003  0.7897895234640757  0.697822374394158  1.0000
  C   C107      1.0  0.5594653450918382  0.08082839204463613  0.9611756997632803  1.0000
  C   C108      1.0  0.9398504642838174  0.9099320987597063  0.4382823961041684  1.0000
  C   C109      1.0  0.683421474983742  0.1826042099030401  0.32267176411251736  1.0000
  C   C110      1.0  0.8398791145962375  0.8166961430523694  0.83451382201005  1.0000
  C   C111      1.0  0.9502507149889202  0.0810082381296835  0.5848744650462058  1.0000
  C   C112      1.0  0.5564566612451189  0.9207537780482408  0.11207110212793722  1.0000
  C   C113      1.0  0.6620304552434292  0.23364810135619313  0.24826427197828002  1.0000
  C   C114      1.0  0.8616118031106964  0.7613477177939975  0.7782433002729512  1.0000
  C   C115      1.0  0.0048327262301422836  0.39639167622188565  0.4983672098933731  1.0000
  C   C116      1.0  0.49611107058560133  0.6009800746388938  0.0008332294279077958  1.0000
  C   C117      1.0  0.8632664277700576  0.27112922502818854  0.21107853245957142  1.0000
  C   C118      1.0  0.6629912504176285  0.7297539999749729  0.7540026531769235  1.0000
  C   C119      1.0  0.491848251071838  0.4112460578413899  0.9754232065888307  1.0000
  C   C120      1.0  0.9928729020126047  0.5932925452330907  0.4679546260445032  1.0000
  C   C121      1.0  0.13964570038552135  0.7580817035116437  0.7707213890793599  1.0000
  C   C122      1.0  0.354685947998295  0.23828419756191202  0.2830555442839127  1.0000
  C   C123      1.0  0.4996896080670475  0.9111331753422719  0.04825224629911387  1.0000
  C   C124      1.0  0.0073335898625581965  0.07942242066538259  0.5115029334231264  1.0000
  C   C125      1.0  0.33676795444061913  0.7318461801618725  0.7489210983413279  1.0000
  C   C126      1.0  0.17198557393684658  0.25972938818029806  0.26664477134067804  1.0000
  C   C127      1.0  0.993847346709304  0.9034336437136586  0.5163393414447236  1.0000
  C   C128      1.0  0.5033629561953841  0.08969493379796525  0.02723382916689987  1.0000
  N   N1        1.0  0.6321284916116695  0.226287364403269  0.12798347942957605  1.0000
  N   N2        1.0  0.8979859500547599  0.7658180825143189  0.6588167230176414  1.0000
  N   N3        1.0  0.01224763657058348  0.3637424617473887  0.38320011894275813  1.0000
  N   N4        1.0  0.4940414737720971  0.6350683731056042  0.8888129611695315  1.0000
  N   N5        1.0  0.8910415109359917  0.2860106080584712  0.3280148691962883  1.0000
  N   N6        1.0  0.6439276228288847  0.7221359446549551  0.8877157502999883  1.0000
  N   N7        1.0  0.4847697448104957  0.39041894515661013  0.10430326810304125  1.0000
  N   N8        1.0  0.9870916980957867  0.6172097968848279  0.5955108529380749  1.0000
  N   N9        1.0  0.1098523392168344  0.7665899838672446  0.6493140247025194  1.0000
  N   N10       1.0  0.38472323317875273  0.2336379697511925  0.15924802713935124  1.0000
  N   N11       1.0  0.4962371109505768  0.8874568245370384  0.92341119180294  1.0000
  N   N12       1.0  0.00882797309100101  0.09963287773734415  0.37830622080866044  1.0000
  N   N13       1.0  0.3580959928412932  0.7190339107842203  0.874442668760098  1.0000
  N   N14       1.0  0.1436757257019686  0.26945418281064326  0.3923070533431094  1.0000
  N   N15       1.0  0.9867014242703521  0.8812656099003424  0.64252136644078  1.0000
  N   N16       1.0  0.5050439694021885  0.1210599284716458  0.14796557831777943  1.0000
  O   O1        1.0  0.8352786784416885  0.42484164702128363  0.6939204179262369  1.0000
  O   O2        1.0  0.6583672510671741  0.5603659412180462  0.19109721646477718  1.0000
  O   O3        1.0  0.8191626932693402  0.595840741411761  0.9563872908678359  1.0000
  O   O4        1.0  0.670953992798741  0.4045591515389494  0.44237954941136454  1.0000
  O   O5        1.0  0.6592161419550112  0.43223636153339934  0.7711220762836747  1.0000
  O   O6        1.0  0.832936514120128  0.5689621884614817  0.24766412278640598  1.0000
  O   O7        1.0  0.6681008485116975  0.585203166167708  0.4898814743999076  1.0000
  O   O8        1.0  0.8293000315746295  0.4208642189408416  0.9735976014934862  1.0000
  O   O9        1.0  0.33904646667377764  0.9232297736238724  0.27268045517131967  1.0000
  O   O10       1.0  0.1735212092597498  0.06243788876560409  0.7286643571053797  1.0000
  O   O11       1.0  0.33240500972496073  0.0836826300017768  0.5222073436522547  1.0000
  O   O12       1.0  0.17612556967355952  0.9146636612952552  0.005670345512573283  1.0000
  O   O13       1.0  0.1628230112794291  0.9265872680212054  0.32420738252126946  1.0000
  O   O14       1.0  0.34258426160295236  0.07293373085884541  0.8144990105543298  1.0000
  O   O15       1.0  0.1776024968260112  0.08810411444936386  0.0744819554151398  1.0000
  O   O16       1.0  0.3188930799204919  0.9041558323575438  0.5652976014131131  1.0000
  O   O17       1.0  0.15767925098224447  0.5736016777096212  0.2530490719020994  1.0000
  O   O18       1.0  0.33403607105608557  0.4264676209659226  0.7510883918906024  1.0000
  O   O19       1.0  0.17005112034409436  0.4111436293470127  0.9979981906678684  1.0000
  O   O20       1.0  0.31905419694428366  0.5865604472474257  0.5074240047350264  1.0000
  O   O21       1.0  0.33062733641906256  0.5694724722357426  0.1995071566780143  1.0000
  O   O22       1.0  0.16054497016008812  0.4243546976063255  0.7133289830515754  1.0000
  O   O23       1.0  0.3083965507975667  0.4094596672968447  0.4515834977626225  1.0000
  O   O24       1.0  0.17269187343204223  0.5875162283127052  0.9591308489750533  1.0000
  O   O25       1.0  0.66688486335401  0.08245543407661554  0.8077147155980927  1.0000
  O   O26       1.0  0.8400407275091172  0.9143723988333512  0.2707499019093242  1.0000
  O   O27       1.0  0.6861560316255647  0.9077980782142581  0.5695566407711313  1.0000
  O   O28       1.0  0.8365770935605701  0.0970921905424451  0.03979060958106394  1.0000
  O   O29       1.0  0.8430111168575503  0.07405646203461264  0.7416356887360213  1.0000
  O   O30       1.0  0.6657460465211454  0.9253323855844993  0.24031949029071473  1.0000
  O   O31       1.0  0.816760228812158  0.9243930847876997  0.9849447483722932  1.0000
  O   O32       1.0  0.6860495582663179  0.08256808303781951  0.4895823924185125  1.0000
  O   O33       1.0  0.7564928711214345  0.5006822225066223  0.8325126885005852  1.0000
  O   O34       1.0  0.7380321652257734  0.5060490907159515  0.3485403373670457  1.0000
  O   O35       1.0  0.7565664438388378  0.5105973123408322  0.0908671816721871  1.0000
  O   O36       1.0  0.7350928075294079  0.49164537084002785  0.5914036418572073  1.0000
  O   O37       1.0  0.25995725487230426  0.9904577840231663  0.41262132693047476  1.0000
  O   O38       1.0  0.24181458901353511  0.008482259691998409  0.9124326726151774  1.0000
  O   O39       1.0  0.26812338885026704  0.9990104311252138  0.6766549866721331  1.0000
  O   O40       1.0  0.24081208597193643  0.9938284257810535  0.1615369039368339  1.0000
  O   O41       1.0  0.2381464422742828  0.5073396438106907  0.09982464236941739  1.0000
  O   O42       1.0  0.25511451545540476  0.48999560296031425  0.6096350633835407  1.0000
  O   O43       1.0  0.23826885194437034  0.4928963460892673  0.8563912292223321  1.0000
  O   O44       1.0  0.2571382005821752  0.5058014475770796  0.35594786262737066  1.0000
  O   O45       1.0  0.7417943888643233  0.0033904114416341874  0.6691979426669551  1.0000
  O   O46       1.0  0.764591995300123  0.0031304366321744936  0.1701510349316975  1.0000
  O   O47       1.0  0.7513679217803167  0.9828683576462695  0.415773417875205  1.0000
  O   O48       1.0  0.7571471465163351  0.016407970946547824  0.9077366667526191  1.0000
  O   O49       1.0  0.7301294138501199  0.3664334389415121  0.6050206149752861  1.0000
  O   O50       1.0  0.7489190920422396  0.6334022210826474  0.09489478320042016  1.0000
  O   O51       1.0  0.8776839439842412  0.5065128543427682  0.8114424227825099  1.0000
  O   O52       1.0  0.6083477846001588  0.5021312653041806  0.3439047655712503  1.0000
  O   O53       1.0  0.7547362164218148  0.3692414148851447  0.8594045790779792  1.0000
  O   O54       1.0  0.7375498613407322  0.6308100300630504  0.3595937854460946  1.0000
  O   O55       1.0  0.6103873444603647  0.4859225582373517  0.6048960877728156  1.0000
  O   O56       1.0  0.8867585476587204  0.5188997485900385  0.08461645165833268  1.0000
  O   O57       1.0  0.23884808279600211  0.8620184994763809  0.14052433363204006  1.0000
  O   O58       1.0  0.2614718008143209  0.13303009687478284  0.6537619054163033  1.0000
  O   O59       1.0  0.38557850723205006  0.9929294703019219  0.4125537112655761  1.0000
  O   O60       1.0  0.1183168541627374  0.01346116480339907  0.8921147615694757  1.0000
  O   O61       1.0  0.2553041351707927  0.8617721891453193  0.41449813067984687  1.0000
  O   O62       1.0  0.24394889254975058  0.12946588660349415  0.921621700805844  1.0000
  O   O63       1.0  0.1215610417072016  0.9930038374724669  0.1820546767663527  1.0000
  O   O64       1.0  0.3808384035033923  0.9973844222005733  0.6821058059049357  1.0000
  O   O65       1.0  0.24949635929609018  0.6292608171338894  0.36812290521849084  1.0000
  O   O66       1.0  0.24299877935509356  0.36906239267545154  0.8710515418920824  1.0000
  O   O67       1.0  0.11543186446898045  0.508706223187731  0.1142747221278555  1.0000
  O   O68       1.0  0.38249783084122535  0.49307930046418424  0.6113182910892776  1.0000
  O   O69       1.0  0.24026353904126077  0.6366482110538012  0.09910573306064989  1.0000
  O   O70       1.0  0.25213589809957565  0.36139738169226737  0.6126517383260007  1.0000
  O   O71       1.0  0.3795228565042244  0.5149014439398344  0.35735429772981364  1.0000
  O   O72       1.0  0.1138299232862061  0.49487194693774106  0.8440357822534778  1.0000
  O   O73       1.0  0.7674369108550957  0.13849465379084083  0.8957076843707721  1.0000
  O   O74       1.0  0.736599838221571  0.8620684406749204  0.4017718898720814  1.0000
  O   O75       1.0  0.6197062573822378  0.020141175253432588  0.660921764262135  1.0000
  O   O76       1.0  0.8860690693249826  0.9871287270983232  0.14360601230266734  1.0000
  O   O77       1.0  0.7438235991956895  0.13852423545786163  0.6383468412612329  1.0000
  O   O78       1.0  0.753849056251657  0.869563242871275  0.12166389408773351  1.0000
  O   O79       1.0  0.8908633558391642  0.010787979559572477  0.8886281885019723  1.0000
  O   O80       1.0  0.622346657256012  0.9791543447830141  0.41062845849647356  1.0000
