data_image0
_chemical_formula_structural       Al16H96C128N16O80
_chemical_formula_sum              "Al16 H96 C128 N16 O80"
_cell_length_a       21.6116
_cell_length_b       21.61518
_cell_length_c       10.18042
_cell_angle_alpha    89.73663999999998
_cell_angle_beta     89.71647
_cell_angle_gamma    90.60553000000002

_space_group_name_H-M_alt    "P 1"
_space_group_IT_number       1

loop_
  _space_group_symop_operation_xyz
  'x, y, z'

loop_
  _atom_site_type_symbol
  _atom_site_label
  _atom_site_symmetry_multiplicity
  _atom_site_fract_x
  _atom_site_fract_y
  _atom_site_fract_z
  _atom_site_occupancy
  Al  Al1       1.0  0.7508619833908601  0.42528721953514265  0.7103939294129443  1.0000
  Al  Al2       1.0  0.7436188394244245  0.5709448120298083  0.2014000190741273  1.0000
  Al  Al3       1.0  0.8150331491629275  0.5090178500007259  0.9568776905842743  1.0000
  Al  Al4       1.0  0.6784354339122967  0.4841824334779119  0.45574453202864273  1.0000
  Al  Al5       1.0  0.24581204260398973  0.9250267722650031  0.31445088430803236  1.0000
  Al  Al6       1.0  0.25876780890449697  0.07184039302151214  0.809719176158971  1.0000
  Al  Al7       1.0  0.3239604295607385  0.9905300261798622  0.5616511422583773  1.0000
  Al  Al8       1.0  0.18518423974236647  0.012755964754073368  0.07093565339704044  1.0000
  Al  Al9       1.0  0.2439669377011577  0.5740736685508007  0.23731359413041084  1.0000
  Al  Al10      1.0  0.24876660401757203  0.4349871905180275  0.7446503922016029  1.0000
  Al  Al11      1.0  0.16868268152658822  0.5137163840960838  0.9801257223315708  1.0000
  Al  Al12      1.0  0.3175767640399235  0.49718307256659333  0.479655771565701  1.0000
  Al  Al13      1.0  0.7551037255078563  0.0639310433596962  0.7684099675056753  1.0000
  Al  Al14      1.0  0.7535485188508649  0.9214957646917555  0.25564322801412426  1.0000
  Al  Al15      1.0  0.6827174524997397  0.9911381504427981  0.5168096688350364  1.0000
  Al  Al16      1.0  0.8273065780547527  0.00043003856730949863  0.02109838603127893  1.0000
  H   H1        1.0  0.6358187028390451  0.24927310531188454  0.05588946285913442  1.0000
  H   H2        1.0  0.921107262369153  0.7254558370542363  0.6139832533778609  1.0000
  H   H3        1.0  0.9662641185890406  0.3394247526274635  0.36726608781136905  1.0000
  H   H4        1.0  0.5355923341861993  0.5764365448196724  0.787211080035756  1.0000
  H   H5        1.0  0.8388675972145687  0.29181699593160204  0.42130869136615523  1.0000
  H   H6        1.0  0.5658911681452404  0.6983455666962135  0.8251066769651579  1.0000
  H   H7        1.0  0.5331286885162697  0.4061401310907107  0.16297560662471802  1.0000
  H   H8        1.0  0.9634437424548722  0.5818112971489262  0.6560002448234308  1.0000
  H   H9        1.0  0.15075800114997726  0.8340271938809736  0.6055993794877162  1.0000
  H   H10       1.0  0.37595042932592115  0.1960306001827179  0.11205802378057311  1.0000
  H   H11       1.0  0.43671009898530855  0.8927486835980161  0.8949467591275141  1.0000
  H   H12       1.0  0.039744256135726165  0.09660847203067596  0.32568546661400366  1.0000
  H   H13       1.0  0.3400702323128517  0.7481462818240611  0.9543923320986093  1.0000
  H   H14       1.0  0.14744964690663287  0.24224455366367464  0.4531286543081409  1.0000
  H   H15       1.0  0.025764730958838102  0.8968126176563876  0.7168650611117263  1.0000
  H   H16       1.0  0.4702277031978261  0.12283863684589101  0.206423500310792  1.0000
  H   H17       1.0  0.3385508643954699  0.6712943858906881  0.928371056319585  1.0000
  H   H18       1.0  0.15446983060805744  0.31612235481130446  0.43937835552301735  1.0000
  H   H19       1.0  0.020668702326936832  0.6284978260727515  0.6192320183323808  1.0000
  H   H20       1.0  0.45752990100249047  0.39833579158603943  0.1470427797936045  1.0000
  H   H21       1.0  0.13208392352151954  0.757582606946561  0.5964158001173011  1.0000
  H   H22       1.0  0.3597553936085379  0.2712174365693207  0.08270736657131403  1.0000
  H   H23       1.0  0.4718435631432429  0.610669304006801  0.7839442023792014  1.0000
  H   H24       1.0  0.041118513208015135  0.3301062810538483  0.3990209566535518  1.0000
  H   H25       1.0  0.8665217893676592  0.2221344930984439  0.40993994057940636  1.0000
  H   H26       1.0  0.5767948521883586  0.7778439995756897  0.8483381774037155  1.0000
  H   H27       1.0  0.5530284520917856  0.12812845974442127  0.20697709828728492  1.0000
  H   H28       1.0  0.9504145740022101  0.9137555957532543  0.7207455621745754  1.0000
  H   H29       1.0  0.6675486203666516  0.18351482362977506  0.06532099842265725  1.0000
  H   H30       1.0  0.9248930682799954  0.8019260451786011  0.6313280623617077  1.0000
  H   H31       1.0  0.9792237075875092  0.1376716354192788  0.3793781413724175  1.0000
  H   H32       1.0  0.5041101404073033  0.8983634433509217  0.8418039604094238  1.0000
  H   H33       1.0  0.7383023951027454  0.2404605085960444  0.5867657017351768  1.0000
  H   H34       1.0  0.749101787688608  0.7521728956127931  0.061600563208011445  1.0000
  H   H35       1.0  0.001068597028829954  0.4845146044750864  0.8336064672125731  1.0000
  H   H36       1.0  0.49360410733527255  0.5150424013115639  0.3314774741343276  1.0000
  H   H37       1.0  0.7577043840122593  0.24468922938759094  0.8994785754448408  1.0000
  H   H38       1.0  0.7426738847593669  0.7347878227511827  0.3920126628283668  1.0000
  H   H39       1.0  0.503442596640634  0.4715064549553584  0.598347597953888  1.0000
  H   H40       1.0  0.993212723924206  0.533060211464543  0.10989851889107406  1.0000
  H   H41       1.0  0.2423297235187079  0.758208598412827  0.10881928608322972  1.0000
  H   H42       1.0  0.2756255110722651  0.24091733862201864  0.629204388843457  1.0000
  H   H43       1.0  0.517078527955969  0.9684601501073952  0.39427245272906425  1.0000
  H   H44       1.0  0.007267592331062778  0.029778337706422423  0.8888816062852366  1.0000
  H   H45       1.0  0.2569638508777095  0.7515271525598362  0.4186556247352691  1.0000
  H   H46       1.0  0.24656271686848283  0.25747408613548917  0.9186691258751944  1.0000
  H   H47       1.0  0.0019574896748359993  0.9879477867525532  0.1704171017970563  1.0000
  H   H48       1.0  0.5009175776424035  0.000961050674949334  0.6952818037505918  1.0000
  H   H49       1.0  0.6763790812115966  0.32338898259495247  0.23493458341393803  1.0000
  H   H50       1.0  0.8550106131780109  0.6603855692984243  0.7651845350670856  1.0000
  H   H51       1.0  0.905145740186489  0.4018763695339064  0.5094863021604422  1.0000
  H   H52       1.0  0.5969986677000773  0.5877808912023059  0.0048413873022633575  1.0000
  H   H53       1.0  0.8282299855981737  0.3597264137267997  0.20054309361396291  1.0000
  H   H54       1.0  0.6316364713841605  0.6349774488555192  0.6758617545514185  1.0000
  H   H55       1.0  0.5971290280427742  0.40370112622211685  0.9498199182885525  1.0000
  H   H56       1.0  0.8854575642058851  0.6027794559568834  0.4441494150290111  1.0000
  H   H57       1.0  0.15958790035085374  0.8762619406004402  0.8320300961076293  1.0000
  H   H58       1.0  0.3464315182297603  0.13531948504778152  0.306640228862328  1.0000
  H   H59       1.0  0.391994670860676  0.9152037279534337  0.07680094070181105  1.0000
  H   H60       1.0  0.11598153050360953  0.08785037894754325  0.5526717919793037  1.0000
  H   H61       1.0  0.336656859767783  0.8257532843726186  0.7692978825784762  1.0000
  H   H62       1.0  0.17823596834849995  0.16704273268287925  0.28186916706126147  1.0000
  H   H63       1.0  0.0888240321567868  0.9055470817589826  0.5208696843114684  1.0000
  H   H64       1.0  0.4118872118568782  0.10052496844417484  0.009028672388337489  1.0000
  H   H65       1.0  0.3219325869494278  0.6301267388368849  0.7323206844498119  1.0000
  H   H66       1.0  0.15588380112697905  0.3639977971086531  0.22196529987960506  1.0000
  H   H67       1.0  0.08409415305694702  0.5954470518543007  0.4623177718881429  1.0000
  H   H68       1.0  0.3950593262862264  0.42858536489612986  0.9397084009983331  1.0000
  H   H69       1.0  0.15085446224192448  0.6758361811786264  0.7893215239323829  1.0000
  H   H70       1.0  0.34207576442709325  0.3345339364057712  0.28282133440243296  1.0000
  H   H71       1.0  0.3982558411786703  0.5740994458488191  0.9947131492948416  1.0000
  H   H72       1.0  0.10520781861862116  0.41709076180313137  0.509498305871182  1.0000
  H   H73       1.0  0.8352100336221562  0.15812226112473046  0.2290892595754617  1.0000
  H   H74       1.0  0.6454982270728665  0.836051822707153  0.7083999686609118  1.0000
  H   H75       1.0  0.6140557736985989  0.07968924487288098  0.001206947399562175  1.0000
  H   H76       1.0  0.8927567424300674  0.9440421484548852  0.5068574502164175  1.0000
  H   H77       1.0  0.6642335296568965  0.12695914937553876  0.2820606449112682  1.0000
  H   H78       1.0  0.872646464088597  0.8542647903024188  0.8001618049688609  1.0000
  H   H79       1.0  0.916066577154422  0.09253359559774388  0.5400984138109974  1.0000
  H   H80       1.0  0.5905140194872304  0.8930171432461261  0.038178257795212986  1.0000
  H   H81       1.0  0.24768501566767936  0.5421767761130558  0.8113987310435578  1.0000
  H   H82       1.0  0.22060918051016468  0.49803310718633537  0.5763877433231509  1.0000
  H   H83       1.0  0.24793813763841646  0.45890369749170595  0.32880748934386117  1.0000
  H   H84       1.0  0.26654529609489347  0.5033487541659831  0.07082879893635959  1.0000
  H   H85       1.0  0.7359458692791019  0.47291091588376233  0.10140044963393843  1.0000
  H   H86       1.0  0.7852573772150876  0.496429062088448  0.370452144738911  1.0000
  H   H87       1.0  0.7575396856749218  0.5209009949048404  0.6098274754012163  1.0000
  H   H88       1.0  0.7236602538650826  0.5136239122277504  0.8481402438755598  1.0000
  H   H89       1.0  0.26491618679058754  0.9756270638247196  0.9609182466900227  1.0000
  H   H90       1.0  0.28557706430960134  0.005243456658889303  0.1661038748204416  1.0000
  H   H91       1.0  0.2520746221220346  0.026145334072152325  0.4016936054426701  1.0000
  H   H92       1.0  0.21978066087756112  0.9955453186917596  0.6447129021813266  1.0000
  H   H93       1.0  0.7829936220022998  0.9784225189450538  0.6394165781712277  1.0000
  H   H94       1.0  0.722165641936503  0.991782074740229  0.08277565314737757  1.0000
  H   H95       1.0  0.7552063619894515  0.9682968263417611  0.8534605222629174  1.0000
  H   H96       1.0  0.7665755472670401  0.02072050942800674  0.36718051864228135  1.0000
  C   C1        1.0  0.7086481781190345  0.35125121193703673  0.4855225075880321  1.0000
  C   C2        1.0  0.7895701685663056  0.640561907803319  0.9804631631431122  1.0000
  C   C3        1.0  0.8827819484469812  0.4557888388296869  0.7300614544603355  1.0000
  C   C4        1.0  0.6148447443715073  0.534127093584596  0.23644938982437233  1.0000
  C   C5        1.0  0.7892762433512711  0.3681789830277013  0.9609751847497052  1.0000
  C   C6        1.0  0.7008328972456676  0.6235576206416705  0.4498347457095128  1.0000
  C   C7        1.0  0.6139219419426762  0.44793248043158224  0.694176981035343  1.0000
  C   C8        1.0  0.8792386760376893  0.5443835160013408  0.1980416676408534  1.0000
  C   C9        1.0  0.20824917797612527  0.8758499619764368  0.06462284020958348  1.0000
  C   C10       1.0  0.3065173078275926  0.1288178191936357  0.5533210237746585  1.0000
  C   C11       1.0  0.38637182432696643  0.9459166177517597  0.328400760992161  1.0000
  C   C12       1.0  0.12289612164438872  0.056141054915005456  0.8167976435592648  1.0000
  C   C13       1.0  0.28225136711754156  0.8572078534460338  0.541424651945174  1.0000
  C   C14       1.0  0.2213424470294317  0.14385483802657886  0.03809982977443371  1.0000
  C   C15       1.0  0.11584152459034953  0.9592177849437505  0.2779220287047  1.0000
  C   C16       1.0  0.3888023906870912  0.03709457750862802  0.7930751972452531  1.0000
  C   C17       1.0  0.2880798547878935  0.6321675990672635  0.47529049740303503  1.0000
  C   C18       1.0  0.20282092801281995  0.376647427865549  0.9790594399965288  1.0000
  C   C19       1.0  0.10961516173465308  0.5564230719357648  0.21439277664082917  1.0000
  C   C20       1.0  0.38529264049557005  0.45487954072108394  0.7091404207994857  1.0000
  C   C21       1.0  0.19878363515613798  0.6491381650988182  0.00973764983339467  1.0000
  C   C22       1.0  0.2883873178805729  0.3584618915792778  0.5183810066327926  1.0000
  C   C23       1.0  0.37793944574580707  0.5500046377510706  0.24030580586401135  1.0000
  C   C24       1.0  0.11598713805587259  0.46744798871238114  0.7472221292718754  1.0000
  C   C25       1.0  0.7923949621855072  0.13316957763061363  0.00018956710024098378  1.0000
  C   C26       1.0  0.7131295158179073  0.8582876190450169  0.48978474531611327  1.0000
  C   C27       1.0  0.6217913934849624  0.0370978659908648  0.7606833999200737  1.0000
  C   C28       1.0  0.8875532737776306  0.9646658377590722  0.25360265907328805  1.0000
  C   C29       1.0  0.708571531552139  0.1214266569503011  0.5246875303263777  1.0000
  C   C30       1.0  0.8015025441188494  0.8680284411406132  0.01726873767720939  1.0000
  C   C31       1.0  0.8913331112556612  0.048028267572059725  0.7912724933256399  1.0000
  C   C32       1.0  0.6214567211263843  0.9417952276360657  0.2793471776118323  1.0000
  C   C33       1.0  0.7142441835724314  0.2345857469967154  0.4980774499426589  1.0000
  C   C34       1.0  0.7820673556362339  0.7525005214771265  0.9795242067598572  1.0000
  C   C35       1.0  0.00037908070076867227  0.4616816944798435  0.7374240964513379  1.0000
  C   C36       1.0  0.49402328319041094  0.5401159441837378  0.23292060632690187  1.0000
  C   C37       1.0  0.7870980813498957  0.24979398462416197  0.9821812309034946  1.0000
  C   C38       1.0  0.7134881189940978  0.7402753752224485  0.47786033273975653  1.0000
  C   C39       1.0  0.5027646819239996  0.463502749898873  0.7060167812031898  1.0000
  C   C40       1.0  0.9919441527199616  0.5475757942480346  0.21378110310080464  1.0000
  C   C41       1.0  0.21694590841536676  0.7640819139198486  0.019167781689663224  1.0000
  C   C42       1.0  0.29560237814939405  0.2413554249890797  0.5316532168722389  1.0000
  C   C43       1.0  0.5058421532424346  0.9511648298152112  0.2976902513294525  1.0000
  C   C44       1.0  0.007863935508805042  0.04966397225368333  0.7934925481933476  1.0000
  C   C45       1.0  0.2807821689615695  0.7414119981386603  0.5126095753586934  1.0000
  C   C46       1.0  0.21938827521711599  0.2591074264051479  0.011119656914280629  1.0000
  C   C47       1.0  0.0024272838155452447  0.9716294163811672  0.269466034320078  1.0000
  C   C48       1.0  0.5046918127860798  0.02510955248623459  0.7844136437345643  1.0000
  C   C49       1.0  0.7035993047450648  0.28961612111307905  0.42010581051468737  1.0000
  C   C50       1.0  0.8009590749842006  0.7005515494423742  0.916892101252321  1.0000
  C   C51       1.0  0.9464263860786999  0.4438484936388703  0.6757718396854149  1.0000
  C   C52       1.0  0.5504568410840156  0.5496617256470224  0.17037965945317188  1.0000
  C   C53       1.0  0.8009813668905992  0.3085364561217035  0.03440404654583326  1.0000
  C   C54       1.0  0.686122858752565  0.6815142993792768  0.5218312964708692  1.0000
  C   C55       1.0  0.5551756163100958  0.4467041768731774  0.7741025131825259  1.0000
  C   C56       1.0  0.9335556996471212  0.5530766301467598  0.2746378969418324  1.0000
  C   C57       1.0  0.20356909295138348  0.8233203673003522  0.976222952343417  1.0000
  C   C58       1.0  0.3164216206961629  0.18726827621177408  0.4780608389126281  1.0000
  C   C59       1.0  0.44350894614115893  0.942652760024066  0.24856950905390554  1.0000
  C   C60       1.0  0.0667367582898223  0.06347341226772298  0.7328850749606663  1.0000
  C   C61       1.0  0.2951175330171355  0.7933435786000473  0.5849080695424749  1.0000
  C   C62       1.0  0.21012250379862313  0.20672539361135348  0.09040721263946438  1.0000
  C   C63       1.0  0.05345029404180018  0.9513949811544552  0.33963657804971986  1.0000
  C   C64       1.0  0.45124558152465616  0.047679276801272895  0.8455106424363389  1.0000
  C   C65       1.0  0.2935500424166586  0.6837429081066654  0.5601157429026118  1.0000
  C   C66       1.0  0.1980436726671654  0.31652375181408027  0.0534799644855233  1.0000
  C   C67       1.0  0.04724523180013282  0.5655938483737281  0.27533017019328243  1.0000
  C   C68       1.0  0.4452766978477743  0.4518617358874154  0.7758071560190187  1.0000
  C   C69       1.0  0.19433340145514794  0.7134962992133779  0.9554450526189849  1.0000
  C   C70       1.0  0.3057418309172334  0.2966452207202712  0.4642111971423782  1.0000
  C   C71       1.0  0.4396663915518281  0.5586697921558761  0.16846001463698362  1.0000
  C   C72       1.0  0.057932516772486314  0.45159187832720643  0.6731830213936978  1.0000
  C   C73       1.0  0.8030032882740294  0.19760231298660774  0.05113687551193449  1.0000
  C   C74       1.0  0.6966637481817551  0.7951071356183543  0.549693354061742  1.0000
  C   C75       1.0  0.5618464818671528  0.04046447914692112  0.8438655859413743  1.0000
  C   C76       1.0  0.9422749214731588  0.9589195287723382  0.3318348762720509  1.0000
  C   C77       1.0  0.7035111673898957  0.17777344161318395  0.4437506619741601  1.0000
  C   C78       1.0  0.8061870298099579  0.8126657934856215  0.937263465155929  1.0000
  C   C79       1.0  0.9539522393402083  0.05993197186232809  0.7269651935404503  1.0000
  C   C80       1.0  0.5567267491878339  0.9352033709399045  0.22117084283030683  1.0000
  C   C81       1.0  0.6840040472929063  0.28237035701146923  0.29408585034812385  1.0000
  C   C82       1.0  0.8384952417646945  0.7037496486258118  0.8046089568157571  1.0000
  C   C83       1.0  0.9505650102433967  0.41712226056025936  0.5564113682993076  1.0000
  C   C84       1.0  0.552833741488544  0.5794774954303937  0.04837628628059212  1.0000
  C   C85       1.0  0.824255405373787  0.3124487227530509  0.16485940828205328  1.0000
  C   C86       1.0  0.6469119894643522  0.6821689913891171  0.6400840277095758  1.0000
  C   C87       1.0  0.5550533287555792  0.4235036166939357  0.9033020608462768  1.0000
  C   C88       1.0  0.9279544112493461  0.5845400902171684  0.3937626633852695  1.0000
  C   C89       1.0  0.1694500890922828  0.8292402699507543  0.8600657428761453  1.0000
  C   C90       1.0  0.3379662894326008  0.18211521649991366  0.34785073793725146  1.0000
  C   C91       1.0  0.4391911849441161  0.9210210651948129  0.11855004115020193  1.0000
  C   C92       1.0  0.07082774186685872  0.08346857379029718  0.6032139288099005  1.0000
  C   C93       1.0  0.32568430051004743  0.7845757985631903  0.7071924631392179  1.0000
  C   C94       1.0  0.18171378696201013  0.20841029894832191  0.21593256295012705  1.0000
  C   C95       1.0  0.047964550768489954  0.9230106482364611  0.4634693177213407  1.0000
  C   C96       1.0  0.4554025713795275  0.08057717770810521  0.9693968408596685  1.0000
  C   C97       1.0  0.30986618847512415  0.6753682530253521  0.6908154076567968  1.0000
  C   C98       1.0  0.17338393783858824  0.32135649576746406  0.1812840680058712  1.0000
  C   C99       1.0  0.04327726729482113  0.5861187353789313  0.40540571959073024  1.0000
  C   C100      1.0  0.4432299586651437  0.4319909629009306  0.9050988228308438  1.0000
  C   C101      1.0  0.16455014804889292  0.7210519786111307  0.8283389049578309  1.0000
  C   C102      1.0  0.33521576721975094  0.2944773707901765  0.3395386260019427  1.0000
  C   C103      1.0  0.443048333270313  0.5761835143379007  0.03333985373922759  1.0000
  C   C104      1.0  0.05860647247117605  0.4212128466229859  0.5568957160630564  1.0000
  C   C105      1.0  0.8243759739556731  0.20188935493635096  0.17654157772435822  1.0000
  C   C106      1.0  0.6579551885008501  0.7934071088692038  0.6588888268130122  1.0000
  C   C107      1.0  0.567606845958465  0.07279355912658328  0.9620603712802005  1.0000
  C   C108      1.0  0.9383720701904784  0.9424522697494223  0.46304357399873214  1.0000
  C   C109      1.0  0.6793330419787107  0.1715293081377793  0.3187292995412014  1.0000
  C   C110      1.0  0.8477443742486064  0.8137892863940351  0.8307037194690983  1.0000
  C   C111      1.0  0.9547832917023513  0.08442372446545361  0.5961193457894435  1.0000
  C   C112      1.0  0.5490943094247552  0.9153238194560831  0.08697195003272144  1.0000
  C   C113      1.0  0.6692007130587386  0.2234011659224517  0.23787204761772102  1.0000
  C   C114      1.0  0.8633836247751981  0.7601463331368706  0.7580660094569746  1.0000
  C   C115      1.0  0.004647988133045987  0.4010739457667183  0.49312568743961294  1.0000
  C   C116      1.0  0.49911631913966015  0.5851083841043261  0.9689258250522952  1.0000
  C   C117      1.0  0.8360416455031314  0.2575098161516993  0.2385003917776281  1.0000
  C   C118      1.0  0.6325391841447895  0.7380996253061677  0.7055805249018302  1.0000
  C   C119      1.0  0.4984721145898168  0.4159678220736974  0.9734336504717375  1.0000
  C   C120      1.0  0.9837788718794257  0.5968086397890936  0.46077634022569536  1.0000
  C   C121      1.0  0.15488974248283574  0.7796977657079737  0.7752052602970549  1.0000
  C   C122      1.0  0.34902330079527755  0.238383039575863  0.27592276451287334  1.0000
  C   C123      1.0  0.49084237951951687  0.9048418931527887  0.0372178823520005  1.0000
  C   C124      1.0  0.013060349330399214  0.0905891363170893  0.5335086133492581  1.0000
  C   C125      1.0  0.32962174629161695  0.7267187775055539  0.7619948927431279  1.0000
  C   C126      1.0  0.16597225556130737  0.2684311588736031  0.2673471760383286  1.0000
  C   C127      1.0  0.992169650682693  0.9212797986211375  0.5322904282577472  1.0000
  C   C128      1.0  0.5134298649381607  0.08910236256062735  0.03379782754435112  1.0000
  N   N1        1.0  0.6410998375855395  0.21261590811796613  0.12055963128370585  1.0000
  N   N2        1.0  0.896336478772876  0.7630407121705962  0.6401159397022765  1.0000
  N   N3        1.0  0.005506237131565382  0.3597342028132367  0.3913310416423228  1.0000
  N   N4        1.0  0.5097549862129154  0.6066181913801367  0.8405944234905276  1.0000
  N   N5        1.0  0.8660839004802202  0.2632010622315295  0.36370711920527976  1.0000
  N   N6        1.0  0.5968683577660265  0.7350688425575884  0.8226371963829623  1.0000
  N   N7        1.0  0.5006781659700448  0.39541413627496597  0.10175145208463476  1.0000
  N   N8        1.0  0.9770865650731377  0.6176051397569065  0.5915431078839767  1.0000
  N   N9        1.0  0.12761751872968816  0.7959930639103716  0.6542280207025529  1.0000
  N   N10       1.0  0.3769890893067775  0.24033251065004296  0.15047087455441716  1.0000
  N   N11       1.0  0.4803956026948599  0.8786415947591735  0.9146535359161042  1.0000
  N   N12       1.0  0.019771897441979564  0.11576372795248513  0.4062665821108492  1.0000
  N   N13       1.0  0.34998143585705865  0.7135587258841657  0.8878595070148518  1.0000
  N   N14       1.0  0.14064785074961345  0.27823193022565806  0.3915254094200706  1.0000
  N   N15       1.0  0.9861707414637103  0.8996990418408977  0.6632166753309003  1.0000
  N   N16       1.0  0.5136114689116198  0.10821760452649029  0.1682171752465964  1.0000
  O   O1        1.0  0.8386164042419252  0.4273874843300622  0.6779674991229898  1.0000
  O   O2        1.0  0.6554080347928277  0.5689411103579683  0.18877680389564236  1.0000
  O   O3        1.0  0.817940866296466  0.5939839735136149  0.9313156746170929  1.0000
  O   O4        1.0  0.6802578967293018  0.39610104026230447  0.42979677750444895  1.0000
  O   O5        1.0  0.6609134862427304  0.4227947432814116  0.7411693239454732  1.0000
  O   O6        1.0  0.8301967597304448  0.5726445396953677  0.23583823199205142  1.0000
  O   O7        1.0  0.6790523514828807  0.5722970930966081  0.49747094330267455  1.0000
  O   O8        1.0  0.8172480544144973  0.41786087110272874  0.0011266808634796156  1.0000
  O   O9        1.0  0.33765750939607425  0.9211280810410674  0.2755082347314927  1.0000
  O   O10       1.0  0.1736902879387664  0.08269697753320199  0.7674644139930153  1.0000
  O   O11       1.0  0.33024562785721606  0.07614001573761349  0.5182271381177364  1.0000
  O   O12       1.0  0.183564023264119  0.9256272172711518  0.028156442036301632  1.0000
  O   O13       1.0  0.15687486384408228  0.9243159148080835  0.3256533561966246  1.0000
  O   O14       1.0  0.34620854317509736  0.07272386470077796  0.8356959016685043  1.0000
  O   O15       1.0  0.19486161353010403  0.09798691084095762  0.10342471042373519  1.0000
  O   O16       1.0  0.3074452556428963  0.9027842877651501  0.5957926926007617  1.0000
  O   O17       1.0  0.15539742869437867  0.5747421525668688  0.2808434981112673  1.0000
  O   O18       1.0  0.33640958651043346  0.4379709711386654  0.7684912155353567  1.0000
  O   O19       1.0  0.1716336662573038  0.4228815539193696  0.01966741601204813  1.0000
  O   O20       1.0  0.3140266063426015  0.5828195411251544  0.5176699773377366  1.0000
  O   O21       1.0  0.3301438155993665  0.5679967636456701  0.17843908443670506  1.0000
  O   O22       1.0  0.16628238904697912  0.44050229004314473  0.7123049849945411  1.0000
  O   O23       1.0  0.30890743290437994  0.4041478858170302  0.4426845654694027  1.0000
  O   O24       1.0  0.17531336604115355  0.6054844126766264  0.9420559800669946  1.0000
  O   O25       1.0  0.6659394598752584  0.06912208328477092  0.8065461425699715  1.0000
  O   O26       1.0  0.8443748126532661  0.9267546213719614  0.2875561912276318  1.0000
  O   O27       1.0  0.6902469363727497  0.9058025032984076  0.5525563903474364  1.0000
  O   O28       1.0  0.8231372416993477  0.08991416805545303  0.046778124806144336  1.0000
  O   O29       1.0  0.8480971386325594  0.07434027474188462  0.7303375810639664  1.0000
  O   O30       1.0  0.6642174256127855  0.9188913613544374  0.2109898670796611  1.0000
  O   O31       1.0  0.837721903247855  0.9141596526104132  0.9937322563679162  1.0000
  O   O32       1.0  0.6817218067016154  0.07356858020140826  0.472755356916013  1.0000
  O   O33       1.0  0.7631230641649346  0.4990427132059697  0.8113460325923494  1.0000
  O   O34       1.0  0.7476764744813961  0.5011998464076458  0.32241850153271445  1.0000
  O   O35       1.0  0.7475540884634484  0.5110100279549844  0.06174129934918233  1.0000
  O   O36       1.0  0.7414017743263112  0.4813810350616578  0.5716539886389871  1.0000
  O   O37       1.0  0.25883351749896744  0.9858917023567415  0.44755422337682893  1.0000
  O   O38       1.0  0.24479085089866662  0.013127380138830538  0.9381339984233665  1.0000
  O   O39       1.0  0.2588457672836979  0.0022349853837207883  0.688682064373528  1.0000
  O   O40       1.0  0.24441318197543604  0.9948296318721831  0.20185048533289776  1.0000
  O   O41       1.0  0.22798412655252398  0.5129044892393031  0.10818527405008461  1.0000
  O   O42       1.0  0.2598427124853264  0.49413938833241683  0.6170806891290099  1.0000
  O   O43       1.0  0.23661637333338523  0.5039028431479989  0.8620661868107379  1.0000
  O   O44       1.0  0.2557490606086573  0.5018846430027483  0.3580182100044651  1.0000
  O   O45       1.0  0.7452066076845747  0.0019215266537773446  0.651633428449156  1.0000
  O   O46       1.0  0.7599088680894597  0.993144216348852  0.13676664762208546  1.0000
  O   O47       1.0  0.7512237003675386  0.9808441898124957  0.3981546600476871  1.0000
  O   O48       1.0  0.7661720210998011  0.007020313263167836  0.8994633046030109  1.0000
  O   O49       1.0  0.7416630845839908  0.3542008107369754  0.5941832042205414  1.0000
  O   O50       1.0  0.7509734105099026  0.6345409386798224  0.08132722765025432  1.0000
  O   O51       1.0  0.8793009863959366  0.4940917419962738  0.8225244950948613  1.0000
  O   O52       1.0  0.6191646840678174  0.4947634577138523  0.32583585778568697  1.0000
  O   O53       1.0  0.7585431297163141  0.3650191509655721  0.8544777630755835  1.0000
  O   O54       1.0  0.7291330304146143  0.6286648193510918  0.33716314370846306  1.0000
  O   O55       1.0  0.610962426486291  0.4780394475649315  0.5870310043708339  1.0000
  O   O56       1.0  0.8814205485656215  0.5120624819787999  0.09359748854717223  1.0000
  O   O57       1.0  0.236950512871692  0.8670884573831185  0.1744935963447952  1.0000
  O   O58       1.0  0.27551004023112946  0.1356221322957694  0.6617623972880662  1.0000
  O   O59       1.0  0.3859948512339353  0.9728338000236745  0.4398570029976154  1.0000
  O   O60       1.0  0.11926267370860706  0.0321871224156152  0.9319119879259523  1.0000
  O   O61       1.0  0.2502572286555463  0.8601083083531128  0.4335357379221096  1.0000
  O   O62       1.0  0.2574351867646489  0.13369590021780572  0.9406226741374416  1.0000
  O   O63       1.0  0.12333696735804862  0.0011405742256709317  0.18863544792292675  1.0000
  O   O64       1.0  0.3833908529398033  0.9959723021246475  0.6974892340937145  1.0000
  O   O65       1.0  0.26000771448148674  0.6383896324587646  0.36627611958667167  1.0000
  O   O66       1.0  0.2380001351648452  0.37384622395223893  0.8746909569707367  1.0000
  O   O67       1.0  0.10620469628896248  0.5353506638305446  0.09573082495433843  1.0000
  O   O68       1.0  0.38660546095821696  0.4757466925106772  0.5892396959876547  1.0000
  O   O69       1.0  0.2293664956120441  0.6453497382656077  0.11426460246925965  1.0000
  O   O70       1.0  0.2614436822542997  0.36474855196784856  0.6286950454640383  1.0000
  O   O71       1.0  0.378502869344133  0.5253488503053758  0.3562856580493521  1.0000
  O   O72       1.0  0.11293308902089887  0.5046765310912663  0.8433979942576416  1.0000
  O   O73       1.0  0.7552049658912733  0.12440191096356847  0.9038606096167247  1.0000
  O   O74       1.0  0.7449640414694142  0.8570836630803234  0.38327796526619645  1.0000
  O   O75       1.0  0.6214672460044615  0.005747887421794899  0.6518806783682847  1.0000
  O   O76       1.0  0.8888358423166264  0.0006389513931079893  0.15048313366325777  1.0000
  O   O77       1.0  0.7361725411458461  0.1261326901407649  0.6329844919305632  1.0000
  O   O78       1.0  0.7657593346459152  0.8613543820085752  0.11567300315477876  1.0000
  O   O79       1.0  0.8900649426035578  0.0109343168007351  0.8879345537821848  1.0000
  O   O80       1.0  0.6238720368889888  0.9702056262368871  0.3899116391924595  1.0000
