data_image0
_chemical_formula_structural       Al16H96C128N16O80
_chemical_formula_sum              "Al16 H96 C128 N16 O80"
_cell_length_a       21.6116
_cell_length_b       21.61518
_cell_length_c       10.18042
_cell_angle_alpha    89.73663999999998
_cell_angle_beta     89.71647
_cell_angle_gamma    90.60553000000002

_space_group_name_H-M_alt    "P 1"
_space_group_IT_number       1

loop_
  _space_group_symop_operation_xyz
  'x, y, z'

loop_
  _atom_site_type_symbol
  _atom_site_label
  _atom_site_symmetry_multiplicity
  _atom_site_fract_x
  _atom_site_fract_y
  _atom_site_fract_z
  _atom_site_occupancy
  Al  Al1       1.0  0.7492077091697861  0.42975187459764536  0.7370351388959547  1.0000
  Al  Al2       1.0  0.7478536748433109  0.5715910205553782  0.23374489583897967  1.0000
  Al  Al3       1.0  0.8180741957994536  0.5094064382505242  0.9723396978925808  1.0000
  Al  Al4       1.0  0.6777474437057426  0.49640450736508385  0.4636066266164583  1.0000
  Al  Al5       1.0  0.25074314466832903  0.9241495040367578  0.30514334255786957  1.0000
  Al  Al6       1.0  0.2556617392587166  0.06735356524213239  0.8086366290696181  1.0000
  Al  Al7       1.0  0.3293315849956112  0.9841696951778282  0.5568522374832886  1.0000
  Al  Al8       1.0  0.1793395801235248  0.008553292319049666  0.07002306686769799  1.0000
  Al  Al9       1.0  0.25389214643830743  0.5640402116043476  0.2299609696387639  1.0000
  Al  Al10      1.0  0.24872701463237679  0.42395654228801277  0.7300691478369734  1.0000
  Al  Al11      1.0  0.1799363813159547  0.5054005045500036  0.9665082236827844  1.0000
  Al  Al12      1.0  0.3170428530382156  0.48638130351940323  0.47207531526899277  1.0000
  Al  Al13      1.0  0.7561425820294557  0.07128662903686354  0.7498730024259954  1.0000
  Al  Al14      1.0  0.7498120337264653  0.9313855348311608  0.2536526257471178  1.0000
  Al  Al15      1.0  0.6826446304490388  0.9937761894390469  0.51759241391681  1.0000
  Al  Al16      1.0  0.8264575703097132  0.010847444783009363  0.022386694600578634  1.0000
  H   H1        1.0  0.6460265223681533  0.27730708669611753  0.0573229691779667  1.0000
  H   H2        1.0  0.936229941390503  0.7122706738078436  0.6693824992284289  1.0000
  H   H3        1.0  0.9680692843954337  0.3390999896521867  0.3703962528291416  1.0000
  H   H4        1.0  0.5290485788595616  0.5844697550630673  0.7728977463143133  1.0000
  H   H5        1.0  0.8717366309680844  0.29501229110736576  0.42295940099985213  1.0000
  H   H6        1.0  0.5641861111616163  0.698552101152158  0.8297051060186871  1.0000
  H   H7        1.0  0.5348814907377621  0.41216734389091814  0.16462334283514082  1.0000
  H   H8        1.0  0.9539042356666274  0.6003164892368689  0.6505716717475121  1.0000
  H   H9        1.0  0.14327988351534363  0.8163047472154382  0.602931925103049  1.0000
  H   H10       1.0  0.34259348448998583  0.18660035944748052  0.09964596585806544  1.0000
  H   H11       1.0  0.4627334806522911  0.902589128556355  0.8287928446307729  1.0000
  H   H12       1.0  0.0683586764226061  0.1016364440981923  0.37662250293502997  1.0000
  H   H13       1.0  0.3433308595820089  0.7545011636559734  0.9586276989995802  1.0000
  H   H14       1.0  0.10889209275151172  0.23490819892804168  0.41989550393084607  1.0000
  H   H15       1.0  0.9982656547546441  0.9240759548667147  0.7417649005290418  1.0000
  H   H16       1.0  0.47381130514697717  0.16037014947377123  0.15310594642449793  1.0000
  H   H17       1.0  0.344187517811765  0.6775811788039371  0.9498486839731107  1.0000
  H   H18       1.0  0.14155577004945855  0.2991710531662219  0.4449170955520364  1.0000
  H   H19       1.0  0.032460646983924514  0.6010050824717958  0.6462636421222496  1.0000
  H   H20       1.0  0.4514959584564649  0.4078346456528982  0.13647563720297748  1.0000
  H   H21       1.0  0.14191998531918823  0.7418738951244476  0.5937217175337194  1.0000
  H   H22       1.0  0.37136607520590675  0.25926366270851314  0.1093385919531821  1.0000
  H   H23       1.0  0.4530434456603882  0.6068304060559063  0.8032937076760197  1.0000
  H   H24       1.0  0.04567614702337316  0.34312638737274315  0.37668452734612085  1.0000
  H   H25       1.0  0.8721416818486901  0.21396790347046435  0.40624827989002243  1.0000
  H   H26       1.0  0.5493255004990438  0.7751411316973661  0.8214113002334068  1.0000
  H   H27       1.0  0.5475319748365762  0.17845103592745273  0.12284196399600453  1.0000
  H   H28       1.0  0.9203384099645021  0.920828243555591  0.7132143142157975  1.0000
  H   H29       1.0  0.6621599540204645  0.20787514560921633  0.05153671990251648  1.0000
  H   H30       1.0  0.942460976882897  0.7943369468961273  0.6758288229309152  1.0000
  H   H31       1.0  0.9905008869464498  0.11310183192143615  0.3397048656080838  1.0000
  H   H32       1.0  0.5365074862157636  0.9104735839662447  0.831839054398995  1.0000
  H   H33       1.0  0.7342641286156607  0.25570559754966665  0.5865624618203258  1.0000
  H   H34       1.0  0.7614805676972343  0.764224223613462  0.09804073575002654  1.0000
  H   H35       1.0  0.99800740609567  0.4895077478198581  0.8356009063448946  1.0000
  H   H36       1.0  0.49168428724945734  0.5120981607800525  0.3321496809534542  1.0000
  H   H37       1.0  0.7857131875875311  0.25155941310491603  0.8709094226719655  1.0000
  H   H38       1.0  0.7409314440815236  0.7451695024581396  0.40265633742451307  1.0000
  H   H39       1.0  0.4980469632951202  0.45818504283606487  0.5968664873936588  1.0000
  H   H40       1.0  0.9995586792539033  0.5262464392158503  0.1050194692096394  1.0000
  H   H41       1.0  0.219289335723691  0.7505545279388605  0.1371853315518064  1.0000
  H   H42       1.0  0.2809137718620094  0.2438171954820267  0.6498525915184771  1.0000
  H   H43       1.0  0.5026733063744027  0.9779738668322702  0.3809862456913913  1.0000
  H   H44       1.0  0.0019273416052161263  0.04912723616395912  0.9046246114247974  1.0000
  H   H45       1.0  0.27690311907745496  0.7477737714842745  0.4034522502429861  1.0000
  H   H46       1.0  0.22828361917354875  0.24889905950454344  0.9174762684168845  1.0000
  H   H47       1.0  0.01018295531889013  0.9759444560392815  0.17486286860040548  1.0000
  H   H48       1.0  0.49673506001998213  0.011274452239269489  0.6764339867662693  1.0000
  H   H49       1.0  0.670051528720803  0.34474505530741445  0.2471780579615791  1.0000
  H   H50       1.0  0.8643971286346099  0.6590084804940248  0.8099328304225344  1.0000
  H   H51       1.0  0.8966697824833559  0.40934863393327836  0.5103420095681256  1.0000
  H   H52       1.0  0.6012294931534587  0.5635662872418394  0.985184660683036  1.0000
  H   H53       1.0  0.8401426965344085  0.3594410235041826  0.21809012386715854  1.0000
  H   H54       1.0  0.6153693309688201  0.6498394627755242  0.6590288871315162  1.0000
  H   H55       1.0  0.5964351421011345  0.41344628884877704  0.9539095579800818  1.0000
  H   H56       1.0  0.8949546668009158  0.5895729538094753  0.4525571087212612  1.0000
  H   H57       1.0  0.15127026914845715  0.8697517143866723  0.8197392177078705  1.0000
  H   H58       1.0  0.3430423606356904  0.12957090349581438  0.3235428199637612  1.0000
  H   H59       1.0  0.40178003779775245  0.9107152027864732  0.035795184284335944  1.0000
  H   H60       1.0  0.11036599501157618  0.09273581418313047  0.559162614871661  1.0000
  H   H61       1.0  0.35009597783478996  0.8183720310863863  0.7692541112731927  1.0000
  H   H62       1.0  0.1598900335569159  0.16927747615436495  0.27441172129522495  1.0000
  H   H63       1.0  0.08026455337645637  0.9263706135402144  0.5526200522532739  1.0000
  H   H64       1.0  0.4090677824534341  0.09754937991486119  0.9893748298030488  1.0000
  H   H65       1.0  0.31499528252369763  0.6230833125379394  0.7484827016074233  1.0000
  H   H66       1.0  0.15215405476841637  0.36118824652670783  0.23166925189819382  1.0000
  H   H67       1.0  0.09302816515067577  0.5812077366324703  0.46098757803030443  1.0000
  H   H68       1.0  0.4001488669666822  0.4239367576036769  0.9580842098763789  1.0000
  H   H69       1.0  0.1794756195538388  0.6740503507550446  0.7582592976865961  1.0000
  H   H70       1.0  0.3228436331639332  0.3262353199516561  0.2613297502249963  1.0000
  H   H71       1.0  0.40322363130221556  0.5839661077684286  0.9894510014798373  1.0000
  H   H72       1.0  0.10036891684512973  0.3975165146567877  0.5289382574585139  1.0000
  H   H73       1.0  0.8615066801004032  0.16480806837236903  0.2109434445456308  1.0000
  H   H74       1.0  0.6300554885663172  0.8421366565084103  0.6808158696638935  1.0000
  H   H75       1.0  0.6066126803653473  0.12509692590767135  0.9549662047551077  1.0000
  H   H76       1.0  0.8811205132062712  0.9254280399762909  0.48168663144950347  1.0000
  H   H77       1.0  0.6731691943188254  0.14039854908035976  0.2716425320239868  1.0000
  H   H78       1.0  0.8835682705890392  0.8571661805624162  0.8216092426022659  1.0000
  H   H79       1.0  0.9120709300200422  0.09451638119164735  0.544221577450164  1.0000
  H   H80       1.0  0.5979344485191391  0.9269923582749401  0.018157285351460068  1.0000
  H   H81       1.0  0.2775541325461637  0.5014943480941102  0.8991666990008937  1.0000
  H   H82       1.0  0.23851329664951318  0.5200568462348608  0.639767282002606  1.0000
  H   H83       1.0  0.2153612032187878  0.483573264695438  0.36923716882276736  1.0000
  H   H84       1.0  0.2425681881725472  0.4720786528381282  0.15469887911398109  1.0000
  H   H85       1.0  0.7437473105348339  0.47439741494026066  0.15418331580850647  1.0000
  H   H86       1.0  0.7720416067932306  0.5010542488760206  0.4149599572426031  1.0000
  H   H87       1.0  0.7515601191953857  0.5322656216596742  0.634079650774596  1.0000
  H   H88       1.0  0.7188474733374778  0.4907934685488829  0.9332114534630574  1.0000
  H   H89       1.0  0.25353367674987065  0.9692620870057008  0.9102975995009254  1.0000
  H   H90       1.0  0.28140824697395783  0.012039067406160849  0.1642731566760668  1.0000
  H   H91       1.0  0.2471981312049346  0.01700694863585954  0.40014329280241584  1.0000
  H   H92       1.0  0.22920894598150143  0.9745107106842522  0.6682055344080943  1.0000
  H   H93       1.0  0.784501033826082  0.9881955561003981  0.6038047196259794  1.0000
  H   H94       1.0  0.7227606343138528  0.00928802591623912  0.09401937379385723  1.0000
  H   H95       1.0  0.7578724566444346  0.9806270117474432  0.8455442017467901  1.0000
  H   H96       1.0  0.759396821223792  0.028854705165401118  0.37087113711095376  1.0000
  C   C1        1.0  0.7095172513543943  0.36365811532334624  0.4936368824552627  1.0000
  C   C2        1.0  0.7887613776732942  0.6424248080083553  0.01386128104754587  1.0000
  C   C3        1.0  0.8789722971124231  0.45884586159924445  0.7465701450708337  1.0000
  C   C4        1.0  0.6146245604528334  0.5316693220244376  0.23208248209616134  1.0000
  C   C5        1.0  0.7974376558381394  0.37340659235707274  0.9772396489616686  1.0000
  C   C6        1.0  0.6954698644142536  0.6287209457229254  0.4654693235499602  1.0000
  C   C7        1.0  0.6157054069384373  0.44782245558795064  0.7015735595401456  1.0000
  C   C8        1.0  0.8819981969282966  0.5472624253758239  0.20594421041174027  1.0000
  C   C9        1.0  0.19697006081644003  0.8745589409787049  0.06294359769652015  1.0000
  C   C10       1.0  0.301982316811209  0.12227924800276604  0.5712854256042569  1.0000
  C   C11       1.0  0.3843407125948364  0.9493518842787115  0.30660791412646826  1.0000
  C   C12       1.0  0.12242402324938126  0.050259236402145524  0.8166661351479374  1.0000
  C   C13       1.0  0.29677958171240365  0.8541557520033971  0.5269075567073742  1.0000
  C   C14       1.0  0.207274461883166  0.1364527964952288  0.04256166308292686  1.0000
  C   C15       1.0  0.11265181007406984  0.9572009740522907  0.29585295275477935  1.0000
  C   C16       1.0  0.3893263551013371  0.03721992103805015  0.7757025813020264  1.0000
  C   C17       1.0  0.29439568112838765  0.6189867388791692  0.47796864707432535  1.0000
  C   C18       1.0  0.20576253482335988  0.3694224838272558  0.9697445624270692  1.0000
  C   C19       1.0  0.11468112383504141  0.5441824817278471  0.20465174081799753  1.0000
  C   C20       1.0  0.38433317839944847  0.4388494400719885  0.6996921409435513  1.0000
  C   C21       1.0  0.20982398163769084  0.6409417393322548  0.9964332613978426  1.0000
  C   C22       1.0  0.2886530971968661  0.35315033921837147  0.5057323331751553  1.0000
  C   C23       1.0  0.38398308882230053  0.5383920646797198  0.23942304000984369  1.0000
  C   C24       1.0  0.11566226924815601  0.458495928748751  0.7472399039973938  1.0000
  C   C25       1.0  0.8010746433955328  0.13981376747639787  0.9862823085007403  1.0000
  C   C26       1.0  0.7008287964004885  0.861859094781353  0.47516882083629  1.0000
  C   C27       1.0  0.6200298199468133  0.050455269938634965  0.736478740381056  1.0000
  C   C28       1.0  0.8850779065155862  0.9632566503760935  0.24364469792660157  1.0000
  C   C29       1.0  0.7152071640808304  0.13344145554289957  0.5161308442581968  1.0000
  C   C30       1.0  0.7989391779659026  0.8743532190295991  0.02748151245601122  1.0000
  C   C31       1.0  0.889478306909777  0.0522514642644671  0.7735920941841825  1.0000
  C   C32       1.0  0.615449749502162  0.9627083155925059  0.2738753754604442  1.0000
  C   C33       1.0  0.7151665115834699  0.24826399868999863  0.4953966274320131  1.0000
  C   C34       1.0  0.7919165871201899  0.759347564050657  0.009670884840631938  1.0000
  C   C35       1.0  0.9954852508556087  0.4674543520349898  0.7417135468470643  1.0000
  C   C36       1.0  0.49619330154150926  0.5268144638451118  0.2295600005142378  1.0000
  C   C37       1.0  0.8034762003252514  0.25742591550196  0.9729235801900318  1.0000
  C   C38       1.0  0.7033039133862187  0.7454142021024074  0.4738041708277462  1.0000
  C   C39       1.0  0.5012191207611845  0.4494658391273842  0.7026680798889263  1.0000
  C   C40       1.0  0.9984738215478736  0.542988259231577  0.20751472405947105  1.0000
  C   C41       1.0  0.20347490050556963  0.7582573879833092  0.03730301341511523  1.0000
  C   C42       1.0  0.2914711880614489  0.23882578965236637  0.5391249197461049  1.0000
  C   C43       1.0  0.4997085652962476  0.9615358904562091  0.2774597414430619  1.0000
  C   C44       1.0  0.008260864557652514  0.05934307234815917  0.8030985265535509  1.0000
  C   C45       1.0  0.29179900830950906  0.7370463086003369  0.5027827680128942  1.0000
  C   C46       1.0  0.20636595077650097  0.25410446675916404  0.010033521481610741  1.0000
  C   C47       1.0  0.0013208777255080406  0.9600527483900275  0.276749236696413  1.0000
  C   C48       1.0  0.503543192753242  0.04021086029431669  0.7654355540728025  1.0000
  C   C49       1.0  0.7040598565741558  0.3034250462344407  0.42351421408192486  1.0000
  C   C50       1.0  0.8107901474121841  0.7035011816957643  0.9600500120054928  1.0000
  C   C51       1.0  0.9397583795876828  0.44996012538276964  0.6784470866590591  1.0000
  C   C52       1.0  0.5538992390747952  0.5408382725900271  0.16389032376360194  1.0000
  C   C53       1.0  0.8105140101605688  0.3136327887393668  0.03894870644073126  1.0000
  C   C54       1.0  0.6767170247241046  0.6897869627622268  0.5212394418234703  1.0000
  C   C55       1.0  0.5551466765316687  0.4389857503079889  0.7725802481652464  1.0000
  C   C56       1.0  0.9416946410078153  0.5540900222422491  0.2777142387744524  1.0000
  C   C57       1.0  0.18812282150967172  0.8161899156901181  0.9879074508199418  1.0000
  C   C58       1.0  0.306651257250771  0.1794759972650328  0.4926756249063019  1.0000
  C   C59       1.0  0.4406896101184278  0.9500339778770969  0.21995708594894453  1.0000
  C   C60       1.0  0.06466300044951698  0.06490348038350723  0.7378434650444292  1.0000
  C   C61       1.0  0.3053515546081449  0.7894664744463221  0.5858088674848626  1.0000
  C   C62       1.0  0.19472315284054537  0.20146461253401596  0.08624613318762643  1.0000
  C   C63       1.0  0.0493841844151925  0.9452373120297443  0.35671913640521474  1.0000
  C   C64       1.0  0.45106681003173854  0.05315761639805723  0.8323542031737059  1.0000
  C   C65       1.0  0.29987155919549857  0.679569492025992  0.5579408050917188  1.0000
  C   C66       1.0  0.1949719366998302  0.31458291784881237  0.05893162653205888  1.0000
  C   C67       1.0  0.05495522165480272  0.5512573514047903  0.274975984107029  1.0000
  C   C68       1.0  0.4445571384507061  0.43509404226578224  0.7673270844695896  1.0000
  C   C69       1.0  0.1996844547210767  0.7070866673620443  0.9525586513362647  1.0000
  C   C70       1.0  0.3007201650412261  0.2912796948200695  0.45444515588087286  1.0000
  C   C71       1.0  0.4416401359641345  0.5455881341291702  0.16872141361089926  1.0000
  C   C72       1.0  0.05186175121352169  0.4468361732396938  0.685176062386653  1.0000
  C   C73       1.0  0.8172703232012843  0.20144501691307007  0.04210590436517797  1.0000
  C   C74       1.0  0.6784167808701665  0.7994390766162549  0.5227654572636307  1.0000
  C   C75       1.0  0.5619633877810052  0.0646972035123772  0.8077657156519303  1.0000
  C   C76       1.0  0.941035078674428  0.951069657427247  0.3199972813685749  1.0000
  C   C77       1.0  0.7059824579516205  0.1918698882722663  0.43799848575226397  1.0000
  C   C78       1.0  0.8192424526315883  0.8153590064493494  0.9647868255730643  1.0000
  C   C79       1.0  0.9510210340540602  0.06962940526477282  0.7287488172573294  1.0000
  C   C80       1.0  0.555543974012129  0.952795164620054  0.21010322015666097  1.0000
  C   C81       1.0  0.6801573453010871  0.30236591900709014  0.2961810764471418  1.0000
  C   C82       1.0  0.8523046625607491  0.7029366693996674  0.8580364831596747  1.0000
  C   C83       1.0  0.9412331137584045  0.4153911034459572  0.556858511435866  1.0000
  C   C84       1.0  0.5553945103269745  0.5590889887329715  0.03411681208941627  1.0000
  C   C85       1.0  0.8351647015829605  0.3148915997050794  0.1671555354386988  1.0000
  C   C86       1.0  0.6311798442023708  0.6912760130755136  0.6154241927637282  1.0000
  C   C87       1.0  0.5524149431161989  0.42086695518044576  0.9019137089116741  1.0000
  C   C88       1.0  0.9391296147927704  0.5764004429355479  0.4052789330973675  1.0000
  C   C89       1.0  0.1646826639174557  0.8242252889965844  0.8579643400722884  1.0000
  C   C90       1.0  0.3341622899900285  0.17521093082719819  0.3676937460374336  1.0000
  C   C91       1.0  0.44048401570391893  0.924559102088256  0.08933669971216315  1.0000
  C   C92       1.0  0.06657750802241277  0.08527969092090303  0.6095686441605145  1.0000
  C   C93       1.0  0.3321027840607594  0.7795791371002725  0.7098854180419543  1.0000
  C   C94       1.0  0.1701856026786402  0.20834568873460654  0.21068935781580247  1.0000
  C   C95       1.0  0.03909358013959688  0.9319774341618873  0.48990633249352306  1.0000
  C   C96       1.0  0.4527750255192482  0.0895666199682347  0.9477551975280797  1.0000
  C   C97       1.0  0.313695655141723  0.6706491877564206  0.6929464130651426  1.0000
  C   C98       1.0  0.16698034621549246  0.3189339073645185  0.1811349007804713  1.0000
  C   C99       1.0  0.051484789811898024  0.5765886404334111  0.4031522193594163  1.0000
  C   C100      1.0  0.44330376048066056  0.42463277142702643  0.9039281064232764  1.0000
  C   C101      1.0  0.17583739440689988  0.714513423096385  0.8235323893193369  1.0000
  C   C102      1.0  0.32462828488156137  0.2846077074713892  0.32785693788682774  1.0000
  C   C103      1.0  0.4447696678772835  0.5712175853758533  0.043936359253048805  1.0000
  C   C104      1.0  0.05505566599297888  0.4100353738190995  0.5741790084851129  1.0000
  C   C105      1.0  0.8451290814979726  0.20541307172018997  0.16713852003138013  1.0000
  C   C106      1.0  0.6360561554511504  0.8003430521637751  0.6251698758496949  1.0000
  C   C107      1.0  0.5637093026764969  0.10020881219853506  0.9188993358294948  1.0000
  C   C108      1.0  0.9319486249745035  0.9327173269179894  0.44916926470114193  1.0000
  C   C109      1.0  0.679718946586169  0.18719800581455767  0.3097843602270152  1.0000
  C   C110      1.0  0.8608306200516996  0.81595507728609  0.8570947203442116  1.0000
  C   C111      1.0  0.9551312449956468  0.08123696981533703  0.5933168162607406  1.0000
  C   C112      1.0  0.5549819295854064  0.9297928164323641  0.07873267272427203  1.0000
  C   C113      1.0  0.6684342649353464  0.24090873097893686  0.23769422276080535  1.0000
  C   C114      1.0  0.8779128468456547  0.7569147567095476  0.8077656940413219  1.0000
  C   C115      1.0  0.00035316746273112326  0.39746026539167867  0.5074736993116487  1.0000
  C   C116      1.0  0.5017376570182326  0.5758806199106178  0.9687222511553122  1.0000
  C   C117      1.0  0.8491249038063095  0.2624210626237052  0.23790883182034558  1.0000
  C   C118      1.0  0.6128396675186132  0.7451106797685114  0.681845885293104  1.0000
  C   C119      1.0  0.4976912823331731  0.4158445970423351  0.9748220642912645  1.0000
  C   C120      1.0  0.9937512097534534  0.5876470849405236  0.46964207665960755  1.0000
  C   C121      1.0  0.15838971431010695  0.7718348476154913  0.7779079989116545  1.0000
  C   C122      1.0  0.33684205680102225  0.22491862856341063  0.2791986390586806  1.0000
  C   C123      1.0  0.4979691288372024  0.9201558964514194  0.018072357624525626  1.0000
  C   C124      1.0  0.013503369165889241  0.09382974406943355  0.5315310157570867  1.0000
  C   C125      1.0  0.3313124179505183  0.7219933155064053  0.7694927513294217  1.0000
  C   C126      1.0  0.15190975901789439  0.2664589607970629  0.2575478455989788  1.0000
  C   C127      1.0  0.9790236472617161  0.9267786098829833  0.5425304648192136  1.0000
  C   C128      1.0  0.5079799793702164  0.11316650844176952  0.9916530771280345  1.0000
  N   N1        1.0  0.640455357199885  0.2372216911840093  0.1111187776187037  1.0000
  N   N2        1.0  0.922699316859491  0.7540203164356936  0.7048736399321106  1.0000
  N   N3        1.0  0.005332055858871685  0.36841960406849794  0.38497371239037675  1.0000
  N   N4        1.0  0.49481967947939126  0.599827573529464  0.8439485922887501  1.0000
  N   N5        1.0  0.8728255070218517  0.2572640264258581  0.3625737989734785  1.0000
  N   N6        1.0  0.5805214787557591  0.7426390835070295  0.8045660489525145  1.0000
  N   N7        1.0  0.49454774959042913  0.396523331769924  0.10737924157301577  1.0000
  N   N8        1.0  0.9928239264842699  0.6119898861114224  0.597773936491973  1.0000
  N   N9        1.0  0.13401661081826177  0.7774059602146159  0.6520106818954177  1.0000
  N   N10       1.0  0.3658268620328168  0.21831740860956036  0.1544755590146012  1.0000
  N   N11       1.0  0.49810366844376647  0.8949690003707803  0.8871993923134999  1.0000
  N   N12       1.0  0.024014325204118742  0.11986619697104152  0.4091275211852156  1.0000
  N   N13       1.0  0.3511276376278555  0.7179586792108826  0.8989505113846301  1.0000
  N   N14       1.0  0.11998121745407507  0.27495039296895674  0.37645198639300004  1.0000
  N   N15       1.0  0.9662659695421102  0.9171036573789377  0.6763502603927093  1.0000
  N   N16       1.0  0.512195336790284  0.14697952935180755  0.10762407012168843  1.0000
  O   O1        1.0  0.8335368306200962  0.43123985384882  0.6974679368390052  1.0000
  O   O2        1.0  0.66011787940048  0.568097337840499  0.20030555471646866  1.0000
  O   O3        1.0  0.8142681481929752  0.595819590634309  0.9571667747123218  1.0000
  O   O4        1.0  0.680640962121047  0.4088482473806226  0.44553402636373685  1.0000
  O   O5        1.0  0.6623699915661833  0.4267848057787788  0.7636357479393336  1.0000
  O   O6        1.0  0.8349156720436223  0.565725285860082  0.26646256935323404  1.0000
  O   O7        1.0  0.670286084238747  0.5799664999294823  0.509822915875057  1.0000
  O   O8        1.0  0.8220507437308174  0.42214695731797997  0.018509378155586936  1.0000
  O   O9        1.0  0.33498801288149127  0.9223215716809323  0.261040324256414  1.0000
  O   O10       1.0  0.17341432837281753  0.0625989135148656  0.7616730734546547  1.0000
  O   O11       1.0  0.321730087373155  0.07272601899946296  0.5125209944566165  1.0000
  O   O12       1.0  0.17226220845318918  0.9229602337602109  0.026049903766016902  1.0000
  O   O13       1.0  0.15873349736754824  0.9299818421154662  0.3486544069995871  1.0000
  O   O14       1.0  0.3414949733190229  0.0645945484957211  0.8221562621130614  1.0000
  O   O15       1.0  0.18327547374739622  0.09106284456836809  0.11143606064398563  1.0000
  O   O16       1.0  0.32814864717016556  0.8962990284647783  0.5757388612267341  1.0000
  O   O17       1.0  0.16112946471849215  0.5577807483605292  0.27668476341045517  1.0000
  O   O18       1.0  0.33598746140043134  0.4236636811006711  0.7670104978952828  1.0000
  O   O19       1.0  0.17723903917853337  0.41770248678404964  0.0030942697969990047  1.0000
  O   O20       1.0  0.3278103508039356  0.571177409300273  0.5107193288285133  1.0000
  O   O21       1.0  0.33829356235423974  0.5704928675562857  0.19470616942610328  1.0000
  O   O22       1.0  0.16004293481839302  0.4264681283648383  0.7012764794869409  1.0000
  O   O23       1.0  0.3143245005664087  0.4008070233567841  0.4485617138758452  1.0000
  O   O24       1.0  0.18648012913764894  0.5976507100580276  0.9298805298212135  1.0000
  O   O25       1.0  0.6676968139153387  0.08406083359647454  0.7634937564182671  1.0000
  O   O26       1.0  0.8363654916544703  0.93157058174832  0.27277488763680713  1.0000
  O   O27       1.0  0.6809039123546989  0.9065756714699544  0.5461547180913812  1.0000
  O   O28       1.0  0.8250017227089382  0.09642177373539282  0.05866291433175556  1.0000
  O   O29       1.0  0.8460945713601705  0.07444635929414826  0.7032691072573471  1.0000
  O   O30       1.0  0.6644843583925696  0.9450531435789643  0.21648052939849632  1.0000
  O   O31       1.0  0.8247568344818658  0.9250129722297867  0.992820643298258  1.0000
  O   O32       1.0  0.6840408575125186  0.08425619351154023  0.4921230239647027  1.0000
  O   O33       1.0  0.7482243809435746  0.49334096955684587  0.8620843436511072  1.0000
  O   O34       1.0  0.7401838760256667  0.5015835615022779  0.3497682757191077  1.0000
  O   O35       1.0  0.7513585364944232  0.5108783244781662  0.10128530634707313  1.0000
  O   O36       1.0  0.7418307383727715  0.4918775501786618  0.5986917901159953  1.0000
  O   O37       1.0  0.265080295349273  0.9803934186145519  0.435964664232792  1.0000
  O   O38       1.0  0.24374188171265765  0.009249005300524239  0.9474673226118099  1.0000
  O   O39       1.0  0.2693852187417614  0.98686048212024  0.7012184441977252  1.0000
  O   O40       1.0  0.24075151759313557  0.9955704300073519  0.19412648056900814  1.0000
  O   O41       1.0  0.2412203962149519  0.5102989255332728  0.09932188924330101  1.0000
  O   O42       1.0  0.25151779105615424  0.4820501106216945  0.6008674469707721  1.0000
  O   O43       1.0  0.2425613176151432  0.49240767718011913  0.8398772420481424  1.0000
  O   O44       1.0  0.2555708354456664  0.49531193089159115  0.3440872966293243  1.0000
  O   O45       1.0  0.7482381546225518  0.002980301707608579  0.6472110973684605  1.0000
  O   O46       1.0  0.7610260314563779  0.0025869794182813433  0.13518908203987015  1.0000
  O   O47       1.0  0.7432959265495774  0.9875415109586186  0.3951438828367559  1.0000
  O   O48       1.0  0.7572830719819281  0.020678077241460386  0.8934059374736076  1.0000
  O   O49       1.0  0.7431851444292766  0.3662003086654653  0.5955565053486012  1.0000
  O   O50       1.0  0.7545123961482194  0.6382052818819646  0.1132809916926725  1.0000
  O   O51       1.0  0.8775330795858326  0.4978450552149793  0.844377819248534  1.0000
  O   O52       1.0  0.6131955943279083  0.49486881906655433  0.3328635009639122  1.0000
  O   O53       1.0  0.7585113860077418  0.3717001387072236  0.8787321908637526  1.0000
  O   O54       1.0  0.7371837816969183  0.6304666396714758  0.3714818136160846  1.0000
  O   O55       1.0  0.6130679306465194  0.4756290501381593  0.5917611648178783  1.0000
  O   O56       1.0  0.8811468107300467  0.5198563756722462  0.0971505417403258  1.0000
  O   O57       1.0  0.23097372958464105  0.8680902018240088  0.16583134638313138  1.0000
  O   O58       1.0  0.272428059836426  0.1256876097778526  0.6783228001201834  1.0000
  O   O59       1.0  0.38813072888489286  0.9782014162069803  0.4164840935421214  1.0000
  O   O60       1.0  0.1175889032220372  0.02881716788844176  0.9353805829317569  1.0000
  O   O61       1.0  0.25799644864947235  0.8572545073751132  0.4313139993915371  1.0000
  O   O62       1.0  0.242781366249459  0.13001915834080655  0.9420165122197105  1.0000
  O   O63       1.0  0.11532702478991327  0.9951198695976476  0.19597777987110956  1.0000
  O   O64       1.0  0.3895454506309435  0.9992507398338075  0.6841303771016551  1.0000
  O   O65       1.0  0.26010066149238276  0.623785588967421  0.3734209708471775  1.0000
  O   O66       1.0  0.2366655547433245  0.3646250032067325  0.8694127141638773  1.0000
  O   O67       1.0  0.11196697776722703  0.5247564588225294  0.08980846813714498  1.0000
  O   O68       1.0  0.38282348829204677  0.46677536417924465  0.5895848792908533  1.0000
  O   O69       1.0  0.24148310305435713  0.6302288409690623  0.1025224606413741  1.0000
  O   O70       1.0  0.2542763257591747  0.354535321873708  0.6083056838527238  1.0000
  O   O71       1.0  0.3788132110536568  0.4978332560600143  0.33025853758302004  1.0000
  O   O72       1.0  0.12070182425446763  0.4982992308884028  0.8354129333426719  1.0000
  O   O73       1.0  0.7725282984781983  0.13514457830488316  0.8779036715662046  1.0000
  O   O74       1.0  0.739736876433999  0.8659661393192566  0.3756401711135478  1.0000
  O   O75       1.0  0.6169972377958122  0.00825855560216128  0.6459764145419353  1.0000
  O   O76       1.0  0.8890939032160999  0.0020833519839009718  0.1482883946411462  1.0000
  O   O77       1.0  0.7528188250187445  0.13404752325922437  0.6159052105291621  1.0000
  O   O78       1.0  0.7583970525700476  0.870056636348519  0.11717505144777543  1.0000
  O   O79       1.0  0.8854606578115828  0.02086323717680782  0.880697459603756  1.0000
  O   O80       1.0  0.616929011749102  0.9859832679632368  0.3903963219206407  1.0000
