data_image0
_chemical_formula_structural       Al16H96C128N16O80
_chemical_formula_sum              "Al16 H96 C128 N16 O80"
_cell_length_a       21.6116
_cell_length_b       21.61518
_cell_length_c       10.18042
_cell_angle_alpha    89.73663999999998
_cell_angle_beta     89.71647
_cell_angle_gamma    90.60553000000002

_space_group_name_H-M_alt    "P 1"
_space_group_IT_number       1

loop_
  _space_group_symop_operation_xyz
  'x, y, z'

loop_
  _atom_site_type_symbol
  _atom_site_label
  _atom_site_symmetry_multiplicity
  _atom_site_fract_x
  _atom_site_fract_y
  _atom_site_fract_z
  _atom_site_occupancy
  Al  Al1       1.0  0.7395546664607747  0.4281161757275099  0.7442364262606449  1.0000
  Al  Al2       1.0  0.7498965777733253  0.5758587840188251  0.23967583010316001  1.0000
  Al  Al3       1.0  0.8172382112829177  0.5111509929875918  0.9767382789144983  1.0000
  Al  Al4       1.0  0.6760989143348068  0.49449316464046783  0.4817349743807921  1.0000
  Al  Al5       1.0  0.2536938724351225  0.9249962648829023  0.3035617397210601  1.0000
  Al  Al6       1.0  0.25731539741647635  0.08047438729173949  0.7971618487790026  1.0000
  Al  Al7       1.0  0.3273457417479501  0.9903861498919758  0.5548491688420597  1.0000
  Al  Al8       1.0  0.18585915190567534  0.008744776121691666  0.05616489873008135  1.0000
  Al  Al9       1.0  0.2470728757018022  0.5675723032327518  0.22008138427542479  1.0000
  Al  Al10      1.0  0.24023985493854505  0.42350974247951667  0.7184862074329498  1.0000
  Al  Al11      1.0  0.17694911050740805  0.5064781822655761  0.9572417008322184  1.0000
  Al  Al12      1.0  0.3144031753829661  0.4851106690144404  0.4545926482841115  1.0000
  Al  Al13      1.0  0.7622976193242816  0.0733373208008532  0.7622364924704256  1.0000
  Al  Al14      1.0  0.7469050187623099  0.9322439893574229  0.2682976538228329  1.0000
  Al  Al15      1.0  0.6841969170822533  0.9952002296364545  0.5282032845915035  1.0000
  Al  Al16      1.0  0.8239492740687515  0.008828582613453317  0.02711743755175312  1.0000
  H   H1        1.0  0.6249169786528138  0.27067926269784537  0.06817522052697136  1.0000
  H   H2        1.0  0.904913243117674  0.7313068878966417  0.6008726472690255  1.0000
  H   H3        1.0  0.9667307668865102  0.33540255219636106  0.3379586076156588  1.0000
  H   H4        1.0  0.5318886148058722  0.6039192087476981  0.8081651140781364  1.0000
  H   H5        1.0  0.8325336571468903  0.2943717868745203  0.4396823008736328  1.0000
  H   H6        1.0  0.5856070618832698  0.6894275298809444  0.8483417274373172  1.0000
  H   H7        1.0  0.5158736986322998  0.4001470150540679  0.1649504449350999  1.0000
  H   H8        1.0  0.9695607942541783  0.5873012277572656  0.6600085274499357  1.0000
  H   H9        1.0  0.1393909787954451  0.8129210325982601  0.5924936701463144  1.0000
  H   H10       1.0  0.366623516221914  0.21560551288082777  0.06043506674470516  1.0000
  H   H11       1.0  0.45568707618799364  0.9092252553808278  0.8541762302547208  1.0000
  H   H12       1.0  0.06100402064952507  0.10041303733316727  0.35813899267785715  1.0000
  H   H13       1.0  0.3703483363863979  0.7517858595630581  0.9287653389253708  1.0000
  H   H14       1.0  0.11460796668008928  0.23115073744714462  0.42735116976857973  1.0000
  H   H15       1.0  0.02689153433495641  0.8695636267063543  0.6777063712639813  1.0000
  H   H16       1.0  0.4850672154338684  0.16152735884124758  0.15663163862264776  1.0000
  H   H17       1.0  0.349358989890588  0.6794967685539414  0.9371181672117569  1.0000
  H   H18       1.0  0.1596507573355121  0.29403755172593604  0.4492294649804125  1.0000
  H   H19       1.0  0.048667313472476194  0.5823542838147885  0.649325101121693  1.0000
  H   H20       1.0  0.44282775211369024  0.3895751565853433  0.16025233302051003  1.0000
  H   H21       1.0  0.10932184641298585  0.7413146783660934  0.6066804433034836  1.0000
  H   H22       1.0  0.41559916820024756  0.2650818637834954  0.12944584475150356  1.0000
  H   H23       1.0  0.4694150380850679  0.6485408877106321  0.8263332106276654  1.0000
  H   H24       1.0  0.04456571948697262  0.33394711773283076  0.3710555482919701  1.0000
  H   H25       1.0  0.8673419889727416  0.22169308486914935  0.42268462604155493  1.0000
  H   H26       1.0  0.5964283330412271  0.7611478952534075  0.9002363101764389  1.0000
  H   H27       1.0  0.5574161643481154  0.1449720944824794  0.15822209198595194  1.0000
  H   H28       1.0  0.9494844820697081  0.898542808379273  0.6948886527548527  1.0000
  H   H29       1.0  0.661351706987284  0.2110373571699344  0.06578131715431805  1.0000
  H   H30       1.0  0.9343753787968434  0.7991680623742327  0.6587199497303297  1.0000
  H   H31       1.0  0.9834061791963922  0.10311054270016051  0.3609645679559598  1.0000
  H   H32       1.0  0.5360777913707027  0.905163037692286  0.8446941926636568  1.0000
  H   H33       1.0  0.7238213439613931  0.25576923568284904  0.6004386188249455  1.0000
  H   H34       1.0  0.7688347087514499  0.7457826187015094  0.09561598225139181  1.0000
  H   H35       1.0  0.9918604687433381  0.4828170737586266  0.832056955147135  1.0000
  H   H36       1.0  0.49475307364689153  0.49714086273473923  0.3213623459078823  1.0000
  H   H37       1.0  0.7809390970325265  0.2510704389901778  0.8838993639834554  1.0000
  H   H38       1.0  0.7222495773500669  0.747186302455865  0.39011691738061544  1.0000
  H   H39       1.0  0.4970763129144896  0.4666129219795139  0.6096444139009328  1.0000
  H   H40       1.0  0.008387585006776768  0.5277904707481629  0.10960425902228302  1.0000
  H   H41       1.0  0.23488663375670368  0.7406932124855699  0.11388183733552157  1.0000
  H   H42       1.0  0.254024957792546  0.23918911607919685  0.5869229699918755  1.0000
  H   H43       1.0  0.49528841419910985  0.9772438035561026  0.4078186962900148  1.0000
  H   H44       1.0  0.0017617009561075037  0.0133002359632224  0.8849792392157534  1.0000
  H   H45       1.0  0.2623599103248811  0.7413387242744763  0.40771317070624713  1.0000
  H   H46       1.0  0.22735749668661745  0.25770894734343647  0.9038076007585936  1.0000
  H   H47       1.0  0.0038132025177091133  0.9828527363225142  0.15636661103109933  1.0000
  H   H48       1.0  0.5028200774281214  0.011669076438480298  0.6827122123502806  1.0000
  H   H49       1.0  0.6468949914110188  0.34359746598603763  0.26126481132865464  1.0000
  H   H50       1.0  0.8563116120793927  0.6585890634460417  0.765226343736194  1.0000
  H   H51       1.0  0.8906453904925619  0.3886177481466842  0.5212429623880604  1.0000
  H   H52       1.0  0.6016566099583894  0.5862125524548467  0.014746928971051562  1.0000
  H   H53       1.0  0.8153128592311035  0.35769527197019135  0.23900483937191352  1.0000
  H   H54       1.0  0.6413690342524458  0.637738819168837  0.6921807983198331  1.0000
  H   H55       1.0  0.5888818739285592  0.40801417409563057  0.9518664409520394  1.0000
  H   H56       1.0  0.906108522308512  0.5799726859635913  0.4645241207185387  1.0000
  H   H57       1.0  0.1645192078275914  0.8697815658845094  0.8095565042678388  1.0000
  H   H58       1.0  0.3719394145479241  0.1395511460908422  0.31927393599125575  1.0000
  H   H59       1.0  0.39956287596284185  0.9044729557559319  0.08409536782467825  1.0000
  H   H60       1.0  0.11999589839970883  0.0805286999036367  0.5647299408242674  1.0000
  H   H61       1.0  0.34438250595536163  0.8173342895353393  0.7631447244621489  1.0000
  H   H62       1.0  0.14766137866916187  0.1657482667516354  0.24063543935206996  1.0000
  H   H63       1.0  0.09243804597226084  0.9196421937508333  0.518459790070801  1.0000
  H   H64       1.0  0.41630703310330563  0.1012350734822068  0.014865641762014992  1.0000
  H   H65       1.0  0.34830685096784464  0.6187587995027088  0.6997568922205188  1.0000
  H   H66       1.0  0.14872100326289459  0.3640919680186644  0.22318278360863897  1.0000
  H   H67       1.0  0.10192450262591213  0.5803148359549996  0.4502460230943092  1.0000
  H   H68       1.0  0.3903331292400389  0.3905037047904811  0.9297056646353666  1.0000
  H   H69       1.0  0.16842714508983006  0.6691395637552568  0.7647619887322394  1.0000
  H   H70       1.0  0.33368959379957275  0.3363561662981732  0.25798322175919086  1.0000
  H   H71       1.0  0.4010598493810736  0.5948083699032982  0.024372804807911305  1.0000
  H   H72       1.0  0.09137401196727975  0.4010721024368815  0.5083976972245972  1.0000
  H   H73       1.0  0.8298768010675383  0.15995508374861217  0.23752193316657527  1.0000
  H   H74       1.0  0.6597600070795091  0.8382190784065098  0.7307237046827306  1.0000
  H   H75       1.0  0.6087972190110219  0.10879121915224693  0.9818253984817911  1.0000
  H   H76       1.0  0.8934267750134529  0.9141602497178088  0.47807687201955895  1.0000
  H   H77       1.0  0.6553722945510703  0.14535555755905533  0.2800076292422173  1.0000
  H   H78       1.0  0.8512773857776165  0.8613216735309811  0.7968781496216815  1.0000
  H   H79       1.0  0.9185804045832217  0.10063803746160621  0.5471199460985098  1.0000
  H   H80       1.0  0.5968274034920584  0.9260866323441395  0.048451191596669135  1.0000
  H   H81       1.0  0.2773502153885437  0.506605968476115  0.8647087948893944  1.0000
  H   H82       1.0  0.23971030511389227  0.5184520247360113  0.5952228444289523  1.0000
  H   H83       1.0  0.2154159537190222  0.48316732350577846  0.3977802768831587  1.0000
  H   H84       1.0  0.2513566195301862  0.47526030506769706  0.1283190636933844  1.0000
  H   H85       1.0  0.7490911885907636  0.47723641150966856  0.1445261684387989  1.0000
  H   H86       1.0  0.7810933310702213  0.4984459911497017  0.39294270974710377  1.0000
  H   H87       1.0  0.743008820622856  0.5237154397751017  0.6685721014084364  1.0000
  H   H88       1.0  0.7107070221713574  0.5056249989172679  0.9057048461790372  1.0000
  H   H89       1.0  0.26428621416892356  0.9860744451667891  0.8913248781107834  1.0000
  H   H90       1.0  0.2867222228933728  0.007905281132342179  0.14918488323173243  1.0000
  H   H91       1.0  0.25455407898401133  0.02634226137337088  0.3753964800687243  1.0000
  H   H92       1.0  0.2326114050249958  0.9790769898728054  0.6689276145825137  1.0000
  H   H93       1.0  0.7853951793585241  0.9875442989256439  0.5906547959618191  1.0000
  H   H94       1.0  0.716840027225988  0.0035023853624334984  0.09479601977252257  1.0000
  H   H95       1.0  0.7557381075790168  0.9801099803989322  0.8629081528182952  1.0000
  H   H96       1.0  0.7557535728757268  0.031806082617828135  0.3621029264064505  1.0000
  C   C1        1.0  0.6903337431271163  0.36359208055464554  0.5062741965912148  1.0000
  C   C2        1.0  0.7946588594086461  0.6409831145631132  0.9900143222655694  1.0000
  C   C3        1.0  0.8745381866293138  0.45362913047984577  0.7491449822811305  1.0000
  C   C4        1.0  0.6130901644513072  0.5373455299496509  0.24991431168311237  1.0000
  C   C5        1.0  0.7903522566819707  0.3735552319352364  0.98501620876091  1.0000
  C   C6        1.0  0.6951495987464962  0.6320591542457904  0.46291997703472876  1.0000
  C   C7        1.0  0.6085097759923069  0.455102630144954  0.7290780421084267  1.0000
  C   C8        1.0  0.8878599268299202  0.5447741486480554  0.20166092689784898  1.0000
  C   C9        1.0  0.20957056393363593  0.8725890233237741  0.05975564394692923  1.0000
  C   C10       1.0  0.3033415347582339  0.12431137779797347  0.5435083055633224  1.0000
  C   C11       1.0  0.38710101508205064  0.9485959853910525  0.3163084428282053  1.0000
  C   C12       1.0  0.12490288543713916  0.05049913200652522  0.8196180755125365  1.0000
  C   C13       1.0  0.29286028379307194  0.8494059892679181  0.5248283519276823  1.0000
  C   C14       1.0  0.21072968090331745  0.1453245937743084  0.021047540023090505  1.0000
  C   C15       1.0  0.1188450418397117  0.9607160696776219  0.27262602295992666  1.0000
  C   C16       1.0  0.39463887894623056  0.04138670679801711  0.7804279029373603  1.0000
  C   C17       1.0  0.29175662361676435  0.6201581280950226  0.463430580705545  1.0000
  C   C18       1.0  0.19095131913190547  0.37234956410857767  0.9675935888164389  1.0000
  C   C19       1.0  0.11746012458683827  0.5506199991402866  0.19727242918941296  1.0000
  C   C20       1.0  0.3763214380274198  0.442800509401864  0.6957228065274255  1.0000
  C   C21       1.0  0.2122293067476394  0.6404183450842684  0.9888645494845717  1.0000
  C   C22       1.0  0.2831772525096115  0.3507198367717407  0.49877793326075076  1.0000
  C   C23       1.0  0.38057872703697837  0.530105013521099  0.2318883431944039  1.0000
  C   C24       1.0  0.11011609460563213  0.4570864193509723  0.7329087425062116  1.0000
  C   C25       1.0  0.8027188438898616  0.1435237762878618  0.989744235651512  1.0000
  C   C26       1.0  0.708117228278515  0.8614769641440279  0.49125152607828426  1.0000
  C   C27       1.0  0.6261071155856602  0.046512020440236  0.7533811615445222  1.0000
  C   C28       1.0  0.8857351715360009  0.9637712634826394  0.2448848688653937  1.0000
  C   C29       1.0  0.7091338703523562  0.1354767772977706  0.5200747282535731  1.0000
  C   C30       1.0  0.7998923353688364  0.8738561898138355  0.02683151151945277  1.0000
  C   C31       1.0  0.8931854517886922  0.05175344964006603  0.7944888139458317  1.0000
  C   C32       1.0  0.6163503797766948  0.9600945559976481  0.29341256201627014  1.0000
  C   C33       1.0  0.70741048595285  0.25187266089308197  0.5010046481250883  1.0000
  C   C34       1.0  0.7943344075373292  0.753631922961296  0.0011279833937939308  1.0000
  C   C35       1.0  0.9914535802525839  0.45740416163426223  0.7385083939999822  1.0000
  C   C36       1.0  0.4975811509066939  0.527273482114712  0.2365462102621027  1.0000
  C   C37       1.0  0.793938311520765  0.25898928130205845  0.9870808931762685  1.0000
  C   C38       1.0  0.6982383787811204  0.7472951673692234  0.4764870345585979  1.0000
  C   C39       1.0  0.4925119850823733  0.4487687180403361  0.7095069111803975  1.0000
  C   C40       1.0  0.004187101648748584  0.5480072783581872  0.20417950285343034  1.0000
  C   C41       1.0  0.21096517388210306  0.7545600549788233  0.024438756455952882  1.0000
  C   C42       1.0  0.2837446682098479  0.23499697320194438  0.49739748786197  1.0000
  C   C43       1.0  0.5003545839503459  0.9621348223254074  0.3039977641995281  1.0000
  C   C44       1.0  0.011750587220251463  0.03809602233317689  0.7935681008453803  1.0000
  C   C45       1.0  0.2819606772079912  0.7335101688263326  0.5138683009695121  1.0000
  C   C46       1.0  0.20439294263200777  0.2583867953553798  0.001601637660008981  1.0000
  C   C47       1.0  0.0004399036938542711  0.9675579904950677  0.25766018147133557  1.0000
  C   C48       1.0  0.5106755336981185  0.03545990747233678  0.7725526317721418  1.0000
  C   C49       1.0  0.6884926033893037  0.30471903414129015  0.43703167820611166  1.0000
  C   C50       1.0  0.8130824244385586  0.6998785788913775  0.933706617336377  1.0000
  C   C51       1.0  0.934718621892677  0.439727548354669  0.6753376383564667  1.0000
  C   C52       1.0  0.5534682346657277  0.5458184370348658  0.18122235400170295  1.0000
  C   C53       1.0  0.8019127497388723  0.3140718186560859  0.05521455569624154  1.0000
  C   C54       1.0  0.6829581260497383  0.6873228283517765  0.5327111033103544  1.0000
  C   C55       1.0  0.5452440763660417  0.4375808982192187  0.7861269642126837  1.0000
  C   C56       1.0  0.9474756592828015  0.5574738429811673  0.2701144940273279  1.0000
  C   C57       1.0  0.19900793114319235  0.8166054724363042  0.9786987078604904  1.0000
  C   C58       1.0  0.3096588769832086  0.17905566209369095  0.45982048041736595  1.0000
  C   C59       1.0  0.44470247377343675  0.9428289597927156  0.24288703097373024  1.0000
  C   C60       1.0  0.07023640409958543  0.05231186443957411  0.7376337743629311  1.0000
  C   C61       1.0  0.3003494499464604  0.7852380447990714  0.5836694624259001  1.0000
  C   C62       1.0  0.19191109191279038  0.20597433257636658  0.07295651560300678  1.0000
  C   C63       1.0  0.05531466214170963  0.9517543354488677  0.332747086580345  1.0000
  C   C64       1.0  0.45603654286804063  0.055183685129227764  0.8366880073788456  1.0000
  C   C65       1.0  0.29840167533771816  0.673640269048413  0.5523456230647131  1.0000
  C   C66       1.0  0.18415048939029702  0.31570965727666206  0.054445695430450455  1.0000
  C   C67       1.0  0.057885102111043585  0.5545119212145202  0.271311783624988  1.0000
  C   C68       1.0  0.4372300686016122  0.4320558990899113  0.7673692192624268  1.0000
  C   C69       1.0  0.20126105104863548  0.7049748711119933  0.9390660629871003  1.0000
  C   C70       1.0  0.29878360815466465  0.2890634946038468  0.43703224794033657  1.0000
  C   C71       1.0  0.4442626028886119  0.5467142389207075  0.17564381509016894  1.0000
  C   C72       1.0  0.047564066587936445  0.44180228395292315  0.6780993817907648  1.0000
  C   C73       1.0  0.8046944016967986  0.20415453692961516  0.05612089184821615  1.0000
  C   C74       1.0  0.6916997987335518  0.8004857425408315  0.5537079145700257  1.0000
  C   C75       1.0  0.5672071155021282  0.05549731495003381  0.8256779612601345  1.0000
  C   C76       1.0  0.9429433367520873  0.9501096826753218  0.31554924839823084  1.0000
  C   C77       1.0  0.6953386496568364  0.1929454710418365  0.44366820571500154  1.0000
  C   C78       1.0  0.8111251452249255  0.8131145543953455  0.9548949535964737  1.0000
  C   C79       1.0  0.9562981429100857  0.059500777173019825  0.7279491599097779  1.0000
  C   C80       1.0  0.555510326128163  0.9520042729979656  0.2262923890792934  1.0000
  C   C81       1.0  0.6657884094192658  0.3016878897381054  0.3047919638861247  1.0000
  C   C82       1.0  0.8481941536847235  0.7049257999252058  0.8174903912618021  1.0000
  C   C83       1.0  0.9355966056764177  0.3998225844560898  0.5635585476117327  1.0000
  C   C84       1.0  0.5563715379574972  0.581248981067744  0.061303142296572244  1.0000
  C   C85       1.0  0.8177651735099298  0.3145888156837365  0.18723544492342353  1.0000
  C   C86       1.0  0.6567250948149947  0.6854141426804787  0.6567933394220911  1.0000
  C   C87       1.0  0.5430557542061871  0.4184057292035957  0.9155959981294436  1.0000
  C   C88       1.0  0.9492842255831152  0.5747018997919481  0.4036652444006887  1.0000
  C   C89       1.0  0.1754580053641802  0.8235953633163527  0.8536369159081677  1.0000
  C   C90       1.0  0.34857000338209554  0.17940677631922067  0.34589217045049425  1.0000
  C   C91       1.0  0.44374948043731116  0.9211692554202824  0.1144147588711502  1.0000
  C   C92       1.0  0.07325801215029532  0.07977066005482422  0.6140539053332584  1.0000
  C   C93       1.0  0.33079471196033583  0.77693591394322  0.7016168112085238  1.0000
  C   C94       1.0  0.1630382697265982  0.20889654325695856  0.2006328827455169  1.0000
  C   C95       1.0  0.050077480032485376  0.924549243455928  0.45925552508378853  1.0000
  C   C96       1.0  0.4570706205531912  0.08795000732123434  0.9572884689604738  1.0000
  C   C97       1.0  0.3318153139102484  0.6631461379903691  0.6735301486693639  1.0000
  C   C98       1.0  0.16434159211253865  0.3192286885851564  0.18401149182921797  1.0000
  C   C99       1.0  0.06026272817122523  0.5711209619744854  0.39797008678710677  1.0000
  C   C100      1.0  0.4341777476098668  0.409345333302733  0.8950167539239522  1.0000
  C   C101      1.0  0.17156645111228816  0.7096259807979394  0.8226129836607018  1.0000
  C   C102      1.0  0.33432102938311115  0.29005550926085255  0.3172214242423039  1.0000
  C   C103      1.0  0.4465917306587519  0.5854060581624728  0.0687420717002974  1.0000
  C   C104      1.0  0.04660427360240334  0.41071601219554166  0.5586851962548481  1.0000
  C   C105      1.0  0.8243036549863071  0.204962923165018  0.18569004967891095  1.0000
  C   C106      1.0  0.6619678005931973  0.7951343794124757  0.6771951094519051  1.0000
  C   C107      1.0  0.5686680100386412  0.08712489544094257  0.9439999603929919  1.0000
  C   C108      1.0  0.9400877065477476  0.9228685874919671  0.4393636190525986  1.0000
  C   C109      1.0  0.6699837260715615  0.18994087790874317  0.31949141533252934  1.0000
  C   C110      1.0  0.8439930169314664  0.8157626821863333  0.8348433828078798  1.0000
  C   C111      1.0  0.9617803257654172  0.08883148566165945  0.6004880894370794  1.0000
  C   C112      1.0  0.5527477811174172  0.9324360986836053  0.09758423816687455  1.0000
  C   C113      1.0  0.6574236772416407  0.2437929469323584  0.24951218835563055  1.0000
  C   C114      1.0  0.863599146385979  0.7624292163200054  0.7642128474526064  1.0000
  C   C115      1.0  0.9921209417553819  0.3856620349710064  0.5027113587038976  1.0000
  C   C116      1.0  0.5016040150405544  0.6005865642884247  0.00037330263410175125  1.0000
  C   C117      1.0  0.8334237295305832  0.2603848805714795  0.2508544114640188  1.0000
  C   C118      1.0  0.645169590038558  0.7395681413230494  0.7265290109116198  1.0000
  C   C119      1.0  0.4871619628034907  0.40410949424764236  0.9732060111975521  1.0000
  C   C120      1.0  0.007092800892724238  0.577417552575088  0.47178209074481053  1.0000
  C   C121      1.0  0.15744115309389334  0.77001266830007  0.7805519134498269  1.0000
  C   C122      1.0  0.35498341043541365  0.2322145412807557  0.26888872852372386  1.0000
  C   C123      1.0  0.49732873939464806  0.9152529005456054  0.03817603484943524  1.0000
  C   C124      1.0  0.019685194382658686  0.09743682822730788  0.5419096205227679  1.0000
  C   C125      1.0  0.34204673551705184  0.7151776286548354  0.7518941100315472  1.0000
  C   C126      1.0  0.1527878255173311  0.26667311287116807  0.25609975113708633  1.0000
  C   C127      1.0  0.9937353249030052  0.9077366015671945  0.5129358523263267  1.0000
  C   C128      1.0  0.5151519640964574  0.1025782363923757  0.012386690821780011  1.0000
  N   N1        1.0  0.6340676483987534  0.23458729777243473  0.12226449710238678  1.0000
  N   N2        1.0  0.8976281001660517  0.770149311591036  0.6517395286786504  1.0000
  N   N3        1.0  0.0006366046052930804  0.3490440221126194  0.39816880517327247  1.0000
  N   N4        1.0  0.5034426373001578  0.6256924014346208  0.8695824861222131  1.0000
  N   N5        1.0  0.8575288323007544  0.26378673032037103  0.3820303995700844  1.0000
  N   N6        1.0  0.6147084865072646  0.7268471100752202  0.84718638403082  1.0000
  N   N7        1.0  0.4826123583656764  0.3836151381047023  0.10411630294101643  1.0000
  N   N8        1.0  0.009869065450462067  0.5948304417583001  0.6035932824143916  1.0000
  N   N9        1.0  0.12009720407341622  0.7826748974541411  0.6572981897595355  1.0000
  N   N10       1.0  0.3916192775979852  0.22547879609865457  0.14766379992181963  1.0000
  N   N11       1.0  0.4962821217467825  0.8998311319271495  0.9040135528048155  1.0000
  N   N12       1.0  0.023784534160112017  0.12135905550315901  0.40772957119352304  1.0000
  N   N13       1.0  0.37081879090505326  0.7102779721816856  0.8780309305460541  1.0000
  N   N14       1.0  0.12993376040427068  0.2724463174562107  0.3880870967706233  1.0000
  N   N15       1.0  0.9866149668723929  0.8831567385818341  0.6391094324859484  1.0000
  N   N16       1.0  0.5169746157537528  0.1309161557128101  0.13520456505858375  1.0000
  O   O1        1.0  0.8292720697797858  0.4233911224748318  0.7106400870140418  1.0000
  O   O2        1.0  0.6571358837972351  0.570388885176776  0.20079400653123802  1.0000
  O   O3        1.0  0.8094933540722059  0.5922720572817617  0.9256318871305005  1.0000
  O   O4        1.0  0.6618309424487604  0.4083184213155049  0.45684810820469923  1.0000
  O   O5        1.0  0.6521452116835816  0.4279201788907158  0.7898091653493324  1.0000
  O   O6        1.0  0.8365887984550794  0.5641424011933793  0.25654957791830424  1.0000
  O   O7        1.0  0.6675467400883316  0.5833362141404375  0.5082105581954037  1.0000
  O   O8        1.0  0.8171901337783188  0.4219734273087995  0.023335849226460488  1.0000
  O   O9        1.0  0.3393257068843388  0.925309670437312  0.2695736335399645  1.0000
  O   O10       1.0  0.1685022205424572  0.08715316114428935  0.7842844456937493  1.0000
  O   O11       1.0  0.3341259582555613  0.07658086167615506  0.5083570712451557  1.0000
  O   O12       1.0  0.18019639749474414  0.9197733778415024  0.02348863801787915  1.0000
  O   O13       1.0  0.16226995018307816  0.9268497737140303  0.32103616913488864  1.0000
  O   O14       1.0  0.35010128274351277  0.07246997021103387  0.8284445317185386  1.0000
  O   O15       1.0  0.1839744511371924  0.09997704626386578  0.07912610465792201  1.0000
  O   O16       1.0  0.32352914685431317  0.8941861434998764  0.5779419065809256  1.0000
  O   O17       1.0  0.16010282520127309  0.5802533591712669  0.25418298740793566  1.0000
  O   O18       1.0  0.3278111256881027  0.4178542945597582  0.7532353410165437  1.0000
  O   O19       1.0  0.15969599764868175  0.41918591275302935  0.008405398056243614  1.0000
  O   O20       1.0  0.3213774180382531  0.5709860258525062  0.49949975214326714  1.0000
  O   O21       1.0  0.3370353884218176  0.5618833173593079  0.18631566795524168  1.0000
  O   O22       1.0  0.1558810000658896  0.42773357548181584  0.6870712960559022  1.0000
  O   O23       1.0  0.31033202171363766  0.39512929688538495  0.436282945275268  1.0000
  O   O24       1.0  0.18710143456546519  0.5965316498282224  0.9245193012952865  1.0000
  O   O25       1.0  0.6728407471878324  0.08335372485302792  0.7786847912530777  1.0000
  O   O26       1.0  0.8369078640203715  0.9376218111661581  0.2912480896337096  1.0000
  O   O27       1.0  0.6856432336789595  0.9076315101840442  0.5525093745039718  1.0000
  O   O28       1.0  0.8218729790592001  0.09558307503359384  0.049940197887416056  1.0000
  O   O29       1.0  0.8470714911143319  0.08276046919761104  0.7405846508962101  1.0000
  O   O30       1.0  0.6637109317400703  0.9337632651049068  0.23472080243362475  1.0000
  O   O31       1.0  0.8241236617008789  0.9229577248988786  0.9769896073448374  1.0000
  O   O32       1.0  0.6805792041523382  0.08572063619865175  0.4828350005232468  1.0000
  O   O33       1.0  0.7481326258295283  0.49728095922374915  0.860689859215183  1.0000
  O   O34       1.0  0.7414522900669416  0.5074430205255162  0.357410951904684  1.0000
  O   O35       1.0  0.7532941976806142  0.5174695729610732  0.10377370898164026  1.0000
  O   O36       1.0  0.7347452515368574  0.48879001763226015  0.6126483965400812  1.0000
  O   O37       1.0  0.26583556711295325  0.9870428410697801  0.4288929884573801  1.0000
  O   O38       1.0  0.24979682504323547  0.02318360706294256  0.9332223137761456  1.0000
  O   O39       1.0  0.26751174729627764  0.004637758272556792  0.6923633441124128  1.0000
  O   O40       1.0  0.2495506033294049  0.9937444665326169  0.1862637838310548  1.0000
  O   O41       1.0  0.23451417245163655  0.5122326240267652  0.08506288852091211  1.0000
  O   O42       1.0  0.2502869218846301  0.47815486808158264  0.5741231971239753  1.0000
  O   O43       1.0  0.23856820204384005  0.4899304588822129  0.8282569074329535  1.0000
  O   O44       1.0  0.24890011687332486  0.4926032245600411  0.3354481267975739  1.0000
  O   O45       1.0  0.7505600634645356  0.009068648843592058  0.6438753142865978  1.0000
  O   O46       1.0  0.7560546730516838  0.9957973710088683  0.13842940909924112  1.0000
  O   O47       1.0  0.74803285240005  0.9919367629980308  0.40029148165662953  1.0000
  O   O48       1.0  0.7657062555610916  0.019580468740184508  0.8967556760970806  1.0000
  O   O49       1.0  0.7197890780560415  0.36571518813040094  0.6151537625200465  1.0000
  O   O50       1.0  0.7710973550166172  0.6419249544436947  0.10846933272934763  1.0000
  O   O51       1.0  0.8743412993875135  0.4939093456017464  0.8443482569183611  1.0000
  O   O52       1.0  0.6160870231054476  0.5038788655487569  0.35426361234693  1.0000
  O   O53       1.0  0.7552200852411461  0.36940532871359005  0.8838485053808735  1.0000
  O   O54       1.0  0.7316190057751718  0.6356886456414571  0.3619332556250545  1.0000
  O   O55       1.0  0.6101273377193063  0.48681690838983105  0.6230848686216118  1.0000
  O   O56       1.0  0.8880095496295846  0.5208750458167504  0.08796363237159573  1.0000
  O   O57       1.0  0.24675837424751934  0.8696890644505327  0.15351941826836082  1.0000
  O   O58       1.0  0.27243633459319755  0.13203799160144403  0.6523722018363669  1.0000
  O   O59       1.0  0.38922667362859614  0.9728165609482496  0.42904411537205384  1.0000
  O   O60       1.0  0.12562397542685919  0.01293533147131652  0.9176306781794544  1.0000
  O   O61       1.0  0.25755164109955353  0.8529593151749256  0.42204799716017655  1.0000
  O   O62       1.0  0.25062785706915197  0.14360610721829073  0.9316143764482377  1.0000
  O   O63       1.0  0.12339294021271029  0.004264413338048945  0.18309776779602618  1.0000
  O   O64       1.0  0.38972712022443184  0.0029150916588413034  0.6863374518520375  1.0000
  O   O65       1.0  0.2561388998435988  0.6226266384725035  0.3642001171062442  1.0000
  O   O66       1.0  0.21964451791499315  0.36797770232148674  0.8615121389406674  1.0000
  O   O67       1.0  0.11398766202621792  0.5284903659149576  0.08410909547259873  1.0000
  O   O68       1.0  0.3740843944906028  0.4791236006711576  0.5933422097080675  1.0000
  O   O69       1.0  0.25084728928068484  0.6354900176333425  0.08569352438762409  1.0000
  O   O70       1.0  0.24905388530547715  0.3549535815552957  0.5986010275247569  1.0000
  O   O71       1.0  0.3751387967066695  0.4928163976843285  0.3261431242939138  1.0000
  O   O72       1.0  0.11230630112083831  0.4985969924614739  0.8240009338344458  1.0000
  O   O73       1.0  0.7708263604682365  0.14512255345121708  0.8837724782777534  1.0000
  O   O74       1.0  0.7394529849093692  0.8626672171139219  0.3831559380182129  1.0000
  O   O75       1.0  0.6262018527897477  0.0047975287903000334  0.6621047240617368  1.0000
  O   O76       1.0  0.8929899184951667  0.001169635681844694  0.14647174303832572  1.0000
  O   O77       1.0  0.750772749813307  0.14038707727976754  0.6093213510201687  1.0000
  O   O78       1.0  0.7604606788267819  0.8716872272908078  0.1226685251103207  1.0000
  O   O79       1.0  0.8892298917450508  0.017507018036666787  0.8957870827288232  1.0000
  O   O80       1.0  0.6166256626717195  0.988494664144155  0.4014533711129115  1.0000
