data_image0
_chemical_formula_structural       Al16H96C128N16O80
_chemical_formula_sum              "Al16 H96 C128 N16 O80"
_cell_length_a       21.6116
_cell_length_b       21.61518
_cell_length_c       10.18042
_cell_angle_alpha    89.73663999999998
_cell_angle_beta     89.71647
_cell_angle_gamma    90.60553000000002

_space_group_name_H-M_alt    "P 1"
_space_group_IT_number       1

loop_
  _space_group_symop_operation_xyz
  'x, y, z'

loop_
  _atom_site_type_symbol
  _atom_site_label
  _atom_site_symmetry_multiplicity
  _atom_site_fract_x
  _atom_site_fract_y
  _atom_site_fract_z
  _atom_site_occupancy
  Al  Al1       1.0  0.7499030745287856  0.4264627942030423  0.7347241848972548  1.0000
  Al  Al2       1.0  0.7540983391926408  0.5673011717665869  0.23454599520350064  1.0000
  Al  Al3       1.0  0.8200043038556657  0.5132530630729317  0.9595007980356309  1.0000
  Al  Al4       1.0  0.6767168011420938  0.488284357729839  0.47164910691830064  1.0000
  Al  Al5       1.0  0.2546903089650046  0.9301351011582147  0.3028805978976054  1.0000
  Al  Al6       1.0  0.2597766127879728  0.06136770534334768  0.7950383265350116  1.0000
  Al  Al7       1.0  0.32980722944675833  0.9893095143830907  0.5546818447762903  1.0000
  Al  Al8       1.0  0.18219208787194277  0.006236390145146542  0.053685169807939026  1.0000
  Al  Al9       1.0  0.2461968615706406  0.5673238432593609  0.21850787559381135  1.0000
  Al  Al10      1.0  0.23967508504924248  0.4245911109567014  0.713665525058262  1.0000
  Al  Al11      1.0  0.17619867515496648  0.5071911999404735  0.9590726075782676  1.0000
  Al  Al12      1.0  0.31461953026877415  0.491697412667558  0.4725771420858433  1.0000
  Al  Al13      1.0  0.7601330894722854  0.07286846155075538  0.7601399235667774  1.0000
  Al  Al14      1.0  0.7575506044857359  0.9280884663605984  0.280600663632382  1.0000
  Al  Al15      1.0  0.685637387025525  0.9908313691631554  0.5350568110967773  1.0000
  Al  Al16      1.0  0.8262950590723618  0.004509754940712263  0.04632681769824185  1.0000
  H   H1        1.0  0.6374783861926959  0.2738402480404064  0.0695521414319604  1.0000
  H   H2        1.0  0.851236648073421  0.7389776138904073  0.5775588349694665  1.0000
  H   H3        1.0  0.9593547054333506  0.3338402812752358  0.3495174669256737  1.0000
  H   H4        1.0  0.5249648018593817  0.5915721793728925  0.8080951369631052  1.0000
  H   H5        1.0  0.843015283331063  0.32081446949814024  0.4330116787005803  1.0000
  H   H6        1.0  0.5733237714997557  0.6934159789552907  0.8678947791267076  1.0000
  H   H7        1.0  0.5282126158958361  0.40140366045868875  0.15628391607294653  1.0000
  H   H8        1.0  0.9676593339100281  0.588435465769429  0.6348540738074836  1.0000
  H   H9        1.0  0.15701434741168452  0.8217785751790521  0.5891480571844704  1.0000
  H   H10       1.0  0.35761274799518317  0.17856724430855572  0.112540606350525  1.0000
  H   H11       1.0  0.46178609858989866  0.9083098539291713  0.8471651673247423  1.0000
  H   H12       1.0  0.04953372952819399  0.1262836133505775  0.3479882059650318  1.0000
  H   H13       1.0  0.35318927957425134  0.7581050848395025  0.9255023678774588  1.0000
  H   H14       1.0  0.1321150555976587  0.23176264364207086  0.40936091673967384  1.0000
  H   H15       1.0  0.02736017037246991  0.8267571520401998  0.6480023373839884  1.0000
  H   H16       1.0  0.47554474205907504  0.1754581708154539  0.1191445696192566  1.0000
  H   H17       1.0  0.30572111743872143  0.691813069263941  0.9343450467743665  1.0000
  H   H18       1.0  0.1597484767902183  0.30109273102662015  0.41988447957359304  1.0000
  H   H19       1.0  0.04391834080244245  0.5951419355375379  0.638897970716851  1.0000
  H   H20       1.0  0.45590009962797245  0.4014536292692458  0.16724767030357907  1.0000
  H   H21       1.0  0.14691216832481288  0.7497546788424972  0.5777200550206256  1.0000
  H   H22       1.0  0.383074613078708  0.25207291222158934  0.09625566903387762  1.0000
  H   H23       1.0  0.4559473592037646  0.6182368533696684  0.8238902433152386  1.0000
  H   H24       1.0  0.03214040568181066  0.34313400697140034  0.3286477800706986  1.0000
  H   H25       1.0  0.8399145783533983  0.2429206599828359  0.440867219380208  1.0000
  H   H26       1.0  0.5763139085274894  0.7695914546095587  0.8776924386730975  1.0000
  H   H27       1.0  0.5599140124326738  0.18016217718756608  0.11356690790196897  1.0000
  H   H28       1.0  0.9544164323020622  0.8423844108147331  0.6720972553059736  1.0000
  H   H29       1.0  0.6595232401346569  0.2050689916857191  0.058728367953500484  1.0000
  H   H30       1.0  0.8513075453314025  0.8102928994395766  0.5764223753056256  1.0000
  H   H31       1.0  0.9715771347332494  0.14037120111378637  0.3730150538755977  1.0000
  H   H32       1.0  0.5334991529599364  0.9055935882933546  0.8591637229520751  1.0000
  H   H33       1.0  0.7326272190571123  0.2467035439564879  0.6044920401188738  1.0000
  H   H34       1.0  0.7756421339053243  0.7485507070716398  0.12148148581720804  1.0000
  H   H35       1.0  0.9947681485669714  0.5025375189379442  0.8012134606756164  1.0000
  H   H36       1.0  0.5014110859126752  0.5060923273996025  0.3411737082187689  1.0000
  H   H37       1.0  0.7829275496201633  0.25082510192948826  0.8770919054017718  1.0000
  H   H38       1.0  0.7354393683076105  0.7502040157687474  0.40937747341271136  1.0000
  H   H39       1.0  0.49265179231319983  0.4716356901551047  0.6165533627763906  1.0000
  H   H40       1.0  0.9973732774579722  0.523072281186499  0.10517467070632203  1.0000
  H   H41       1.0  0.21769602352587875  0.7489429488985715  0.13424582711011782  1.0000
  H   H42       1.0  0.27874448683616015  0.24642801413305873  0.6309096574052969  1.0000
  H   H43       1.0  0.49827836659345826  0.9777390022694191  0.3974660645288892  1.0000
  H   H44       1.0  0.01009901200800667  0.02734035950903163  0.8938393225109333  1.0000
  H   H45       1.0  0.26744557929558366  0.7530704365979716  0.3847199134745621  1.0000
  H   H46       1.0  0.2183377029261219  0.24618115407437435  0.8701463589607632  1.0000
  H   H47       1.0  0.01266277350286793  0.997003420866745  0.2027639520033879  1.0000
  H   H48       1.0  0.5124584773907789  0.0003932794782576128  0.7048268932389523  1.0000
  H   H49       1.0  0.6638731016308125  0.3403117786208036  0.2626941114372261  1.0000
  H   H50       1.0  0.8389998614912308  0.6732807551617248  0.7544943534590756  1.0000
  H   H51       1.0  0.8926529311184895  0.3886462801383916  0.5190362962746394  1.0000
  H   H52       1.0  0.5910260356331515  0.5916610908132822  0.9997344075857285  1.0000
  H   H53       1.0  0.8259422980096183  0.3710989706110363  0.20429942208478147  1.0000
  H   H54       1.0  0.6269043884921677  0.6346661866633028  0.6742173689676187  1.0000
  H   H55       1.0  0.5884657419759782  0.39166091132044395  0.9394586216557055  1.0000
  H   H56       1.0  0.9037890333833273  0.5824836361670546  0.4492775092923832  1.0000
  H   H57       1.0  0.15007394135159913  0.8676164762943221  0.8277999579916231  1.0000
  H   H58       1.0  0.3461177175119547  0.133173423197337  0.3063601190306242  1.0000
  H   H59       1.0  0.4030387795853795  0.9117078388873354  0.06758171168571929  1.0000
  H   H60       1.0  0.11139310624343654  0.11089582039885555  0.5557995346443199  1.0000
  H   H61       1.0  0.33158021165002954  0.831516192058235  0.7535314898489806  1.0000
  H   H62       1.0  0.18709077754495165  0.1720681408797366  0.25947776920642573  1.0000
  H   H63       1.0  0.09776702414774924  0.927155995212742  0.5472768754615747  1.0000
  H   H64       1.0  0.4147710863629954  0.09104604249766272  0.03218412018396499  1.0000
  H   H65       1.0  0.3117939252254774  0.6309013741837329  0.7007121204096989  1.0000
  H   H66       1.0  0.13442937583597406  0.3586321097696864  0.16975798413059803  1.0000
  H   H67       1.0  0.10379848667195048  0.5800878201096678  0.43833739313828446  1.0000
  H   H68       1.0  0.3898486094133698  0.4146801416352244  0.9586677080943781  1.0000
  H   H69       1.0  0.16679133760764867  0.6752517651505242  0.7481376735076859  1.0000
  H   H70       1.0  0.341451279017109  0.3358671639843072  0.2790985839057729  1.0000
  H   H71       1.0  0.39618185740681955  0.6008940360624292  0.03667867409388949  1.0000
  H   H72       1.0  0.09102079408728113  0.41126318439580717  0.4955821554885705  1.0000
  H   H73       1.0  0.8329256892932909  0.16889389537877222  0.26489126200678986  1.0000
  H   H74       1.0  0.6412063055374213  0.8360440365173342  0.7254568987992872  1.0000
  H   H75       1.0  0.6104056406521754  0.12093677143118478  0.9641129095512628  1.0000
  H   H76       1.0  0.9053117380657092  0.8912300196092735  0.4740062683272461  1.0000
  H   H77       1.0  0.664586704018269  0.13579286064972879  0.2872847816304634  1.0000
  H   H78       1.0  0.8243008043383072  0.8669667130789118  0.7868468813616489  1.0000
  H   H79       1.0  0.9150943186330167  0.10517275690618504  0.5591247373687047  1.0000
  H   H80       1.0  0.5958700367255975  0.912170288349463  0.04826994342290173  1.0000
  H   H81       1.0  0.27731164833979766  0.4913804535785031  0.8767300485317895  1.0000
  H   H82       1.0  0.24501346958080214  0.5253652631914612  0.6356030405258195  1.0000
  H   H83       1.0  0.21196116898890344  0.5047129868890059  0.39868111608216283  1.0000
  H   H84       1.0  0.2237423477685868  0.4684192724035363  0.16164933705692908  1.0000
  H   H85       1.0  0.7467319735568846  0.4754079276189119  0.12553135805983487  1.0000
  H   H86       1.0  0.7758335216249878  0.4888445188746406  0.4026346452850477  1.0000
  H   H87       1.0  0.7476875342777014  0.5255664118904627  0.6277589888315284  1.0000
  H   H88       1.0  0.7201031127163544  0.5115279516755427  0.8864198966814093  1.0000
  H   H89       1.0  0.27813667335493963  0.0030793497552330735  0.9983977991308459  1.0000
  H   H90       1.0  0.255391056884786  0.03227861786460113  0.21019166550128437  1.0000
  H   H91       1.0  0.2292187986612872  0.008221538076299635  0.4612788467944144  1.0000
  H   H92       1.0  0.25611622129944683  0.9581368440646296  0.7272610496473717  1.0000
  H   H93       1.0  0.7795438656605658  0.9759572349713721  0.6365644464021389  1.0000
  H   H94       1.0  0.7242786855306568  0.9935528320686557  0.11946674253586936  1.0000
  H   H95       1.0  0.746581560940536  0.9723887698615227  0.8987257011355619  1.0000
  H   H96       1.0  0.758362421331173  0.022959682013541816  0.381056619655779  1.0000
  C   C1        1.0  0.7004054793229387  0.35835624935035487  0.5119329393471179  1.0000
  C   C2        1.0  0.7885048681145823  0.6430083311766683  0.9913416861159904  1.0000
  C   C3        1.0  0.8836612968441814  0.46277833067704677  0.7356244661496384  1.0000
  C   C4        1.0  0.6146197460669355  0.5403195831022016  0.24726659662473935  1.0000
  C   C5        1.0  0.7959306192991746  0.37129212554027924  0.9567535219214454  1.0000
  C   C6        1.0  0.7007926939290164  0.6264568019808618  0.4632438768354234  1.0000
  C   C7        1.0  0.6118480124969815  0.4470961365551994  0.7094583334793162  1.0000
  C   C8        1.0  0.8822680793981177  0.5490312421002378  0.1951874907223571  1.0000
  C   C9        1.0  0.19827455538873012  0.8680999521184193  0.07679911067618846  1.0000
  C   C10       1.0  0.30956485900827435  0.12375600286676931  0.5695581702128352  1.0000
  C   C11       1.0  0.3879556820390781  0.9521181597025001  0.3142025528761766  1.0000
  C   C12       1.0  0.12615677468783904  0.05232796021857201  0.8004167413885249  1.0000
  C   C13       1.0  0.2922757234332699  0.8596389286956667  0.5215738001763945  1.0000
  C   C14       1.0  0.2146030263307396  0.1399691010393373  0.02078775791561327  1.0000
  C   C15       1.0  0.11972416854786394  0.967917469805534  0.3065607538848466  1.0000
  C   C16       1.0  0.3947935972228864  0.03165704920202153  0.7887279708876134  1.0000
  C   C17       1.0  0.2837881085189011  0.6262852276003016  0.457923776244436  1.0000
  C   C18       1.0  0.17879623373121376  0.36589283653965327  0.9325768088284626  1.0000
  C   C19       1.0  0.11025510192296897  0.5413869128379142  0.1862138584138413  1.0000
  C   C20       1.0  0.37834496627303654  0.44844231243344834  0.6997977195715399  1.0000
  C   C21       1.0  0.21009745629045398  0.641991602977638  0.9914823122395179  1.0000
  C   C22       1.0  0.2925719241212496  0.35788985443777127  0.497036145717391  1.0000
  C   C23       1.0  0.3777950511413323  0.5384122957785334  0.2541605781891872  1.0000
  C   C24       1.0  0.10966362001802486  0.4716275013445182  0.7224200366015561  1.0000
  C   C25       1.0  0.7983472045271676  0.14038533687266402  0.004069952251644304  1.0000
  C   C26       1.0  0.7049152199623231  0.8577290997033327  0.505243114183783  1.0000
  C   C27       1.0  0.6274406898368615  0.04749893800251518  0.7564424987387175  1.0000
  C   C28       1.0  0.8923710417156334  0.956132541954855  0.26599256513974884  1.0000
  C   C29       1.0  0.7173847394145979  0.12928713863401614  0.5164017764573766  1.0000
  C   C30       1.0  0.8000338458748805  0.8699827775594167  0.045733961104447336  1.0000
  C   C31       1.0  0.8924196635155932  0.048298278159522395  0.7973663764896621  1.0000
  C   C32       1.0  0.6200922081342876  0.9554891544649505  0.2968437186073918  1.0000
  C   C33       1.0  0.7119584659972411  0.2446557728647675  0.5048908789460999  1.0000
  C   C34       1.0  0.7870439794352294  0.7583972602795584  0.017570872648209977  1.0000
  C   C35       1.0  0.9950230231834796  0.4730665081568513  0.715347354950547  1.0000
  C   C36       1.0  0.49857944431395596  0.533379668176201  0.24792545005239328  1.0000
  C   C37       1.0  0.7982228218469845  0.25546015791773774  0.9808954301470851  1.0000
  C   C38       1.0  0.7022878814868855  0.7433851353179415  0.49288065751936083  1.0000
  C   C39       1.0  0.49272876977972646  0.44991370786095747  0.7079066524946217  1.0000
  C   C40       1.0  0.995217015637459  0.5386887592972833  0.20387479130851235  1.0000
  C   C41       1.0  0.2032545068755754  0.7549892371157395  0.03386315266025666  1.0000
  C   C42       1.0  0.29673305512506476  0.2415998508015972  0.5290488428715794  1.0000
  C   C43       1.0  0.5015539541309593  0.9627299401924782  0.2926419483442867  1.0000
  C   C44       1.0  0.011077741684131892  0.053896213212633666  0.7989709592617453  1.0000
  C   C45       1.0  0.2846285467404311  0.7455620426835098  0.4821807727481194  1.0000
  C   C46       1.0  0.1967291006528491  0.25029963834422175  0.9678371030471926  1.0000
  C   C47       1.0  0.0077850630273292865  0.9732228067700952  0.29820651501510365  1.0000
  C   C48       1.0  0.5123522843821748  0.030126971367253896  0.787606692676267  1.0000
  C   C49       1.0  0.6963029842300239  0.2988452502754471  0.4426591828273802  1.0000
  C   C50       1.0  0.7993220877200088  0.7087440810871366  0.9408811763075133  1.0000
  C   C51       1.0  0.9392824111548086  0.45270631391453703  0.6574257110135884  1.0000
  C   C52       1.0  0.5549169711510596  0.5501007325044536  0.18085285385240263  1.0000
  C   C53       1.0  0.8014025394444266  0.315021554243334  0.04192171518404929  1.0000
  C   C54       1.0  0.6847128846994475  0.6846840693683247  0.5400079783257882  1.0000
  C   C55       1.0  0.5483558600576902  0.4309701444446581  0.7704783257244843  1.0000
  C   C56       1.0  0.9401103080879523  0.5546606141965658  0.2638042356276682  1.0000
  C   C57       1.0  0.18634532748606195  0.81370726012006  0.988826760213139  1.0000
  C   C58       1.0  0.3112505868659393  0.1805717870190957  0.48090867606442106  1.0000
  C   C59       1.0  0.44469371175050487  0.9482955274588017  0.2410814793652927  1.0000
  C   C60       1.0  0.06697277829075536  0.06845231498853102  0.7357410642233783  1.0000
  C   C61       1.0  0.3032486265450748  0.7932355666968006  0.5661033136602555  1.0000
  C   C62       1.0  0.19926576249040454  0.20252518057606758  0.0681887969006321  1.0000
  C   C63       1.0  0.06040979304135717  0.961240350177791  0.3722543201809155  1.0000
  C   C64       1.0  0.4566742428070784  0.047302038841246154  0.8541955815723619  1.0000
  C   C65       1.0  0.29135093019490166  0.6859093152751018  0.5324073436145123  1.0000
  C   C66       1.0  0.1736205548491608  0.3080759052615234  0.01303971643674403  1.0000
  C   C67       1.0  0.05406760593225154  0.5470638184992968  0.2662009847245451  1.0000
  C   C68       1.0  0.43786324178482955  0.43732648839023675  0.7727776335697858  1.0000
  C   C69       1.0  0.20008083596465218  0.70583668139194  0.944021694771374  1.0000
  C   C70       1.0  0.3095005303389011  0.2973368781313684  0.4484884539129179  1.0000
  C   C71       1.0  0.44068867578299514  0.5529787361396831  0.20090343381214631  1.0000
  C   C72       1.0  0.04965304736983563  0.4568652928799716  0.6514579640600723  1.0000
  C   C73       1.0  0.8039349839542956  0.2034248319434776  0.0684007115102084  1.0000
  C   C74       1.0  0.6846525416632188  0.7965969586947055  0.5537294357892235  1.0000
  C   C75       1.0  0.5692078542551624  0.05680458497453862  0.8318281027319705  1.0000
  C   C76       1.0  0.9517010552800534  0.9493680111770848  0.3398439367500972  1.0000
  C   C77       1.0  0.7001890480680375  0.18867529294672314  0.44787498767468553  1.0000
  C   C78       1.0  0.8031724746760712  0.8151486313937581  0.9643334212538336  1.0000
  C   C79       1.0  0.9571749785720439  0.060950310219821405  0.7288516061522166  1.0000
  C   C80       1.0  0.55913778144563  0.9510939643473121  0.22542097075920636  1.0000
  C   C81       1.0  0.6769450485497978  0.2974327171007687  0.3104889986757478  1.0000
  C   C82       1.0  0.8242926262400339  0.712491718561228  0.8122213329635691  1.0000
  C   C83       1.0  0.9362217052708942  0.4119129665110375  0.5469882235456979  1.0000
  C   C84       1.0  0.5534399364401974  0.5772800507528411  0.052109916736348176  1.0000
  C   C85       1.0  0.8187652121701645  0.3223889404184851  0.17289028859861533  1.0000
  C   C86       1.0  0.6425705965058122  0.6825884234484443  0.6459042606492447  1.0000
  C   C87       1.0  0.5459986245849722  0.4080193513777685  0.8988171022220524  1.0000
  C   C88       1.0  0.9458704412234306  0.5747057558375259  0.395113343117697  1.0000
  C   C89       1.0  0.167361983635409  0.825374452036831  0.8605071945642564  1.0000
  C   C90       1.0  0.3390818433925021  0.1764469965877934  0.3568509247721525  1.0000
  C   C91       1.0  0.4439153263231147  0.922570445429253  0.11296485304734243  1.0000
  C   C92       1.0  0.06894996895274487  0.09241404525447333  0.6063230549179657  1.0000
  C   C93       1.0  0.322720712789753  0.7867116723792181  0.696516200727704  1.0000
  C   C94       1.0  0.1781428484536304  0.21017374095962132  0.19211474410915672  1.0000
  C   C95       1.0  0.05460812481968791  0.9265315141916749  0.49022699168523803  1.0000
  C   C96       1.0  0.4554432909350794  0.08217401809193037  0.9710221649044416  1.0000
  C   C97       1.0  0.3051674800439392  0.6785486454707391  0.6700652893519344  1.0000
  C   C98       1.0  0.1504627881952775  0.3134543467002571  0.13987358025338448  1.0000
  C   C99       1.0  0.05708827818363999  0.5770971337245872  0.3882933051972465  1.0000
  C   C100      1.0  0.4363256242819132  0.4213152117514621  0.9070915851764031  1.0000
  C   C101      1.0  0.1775921288693022  0.7144432334594025  0.8143876481416574  1.0000
  C   C102      1.0  0.33458145951287976  0.289027557403073  0.3225822519896728  1.0000
  C   C103      1.0  0.4408548384612422  0.584974328336499  0.07647317456678977  1.0000
  C   C104      1.0  0.048934323749258865  0.4227576805830602  0.5396702045144153  1.0000
  C   C105      1.0  0.8219520807190832  0.20861513623627218  0.20181869907464667  1.0000
  C   C106      1.0  0.6536141726824567  0.7909084868020902  0.6723971869772043  1.0000
  C   C107      1.0  0.5680737346421189  0.09833230661017592  0.9368117720039741  1.0000
  C   C108      1.0  0.950397101473191  0.9095226208354205  0.44711277856482073  1.0000
  C   C109      1.0  0.6776018704054497  0.18347055859473302  0.31613082818357263  1.0000
  C   C110      1.0  0.8200398911871878  0.8232960067445378  0.8314566203004876  1.0000
  C   C111      1.0  0.9578136890429755  0.09189271593343361  0.6057749322838347  1.0000
  C   C112      1.0  0.5554570798161912  0.9271492229123838  0.09872897665838437  1.0000
  C   C113      1.0  0.662793199527684  0.2390478194384906  0.24727819562771933  1.0000
  C   C114      1.0  0.8309869951385181  0.769974845770897  0.7547691952137993  1.0000
  C   C115      1.0  0.9919084734344709  0.39922133909055657  0.4838445302778683  1.0000
  C   C116      1.0  0.49594256779519996  0.5910754910640429  0.9998146350053071  1.0000
  C   C117      1.0  0.8260828560188017  0.2718111738528503  0.2608215590839327  1.0000
  C   C118      1.0  0.6295984642780172  0.7348196845421909  0.7226516158825971  1.0000
  C   C119      1.0  0.4905322400396964  0.4070575922490356  0.9745892964267541  1.0000
  C   C120      1.0  0.0020073933715814007  0.5860408598366607  0.4592828399106739  1.0000
  C   C121      1.0  0.16004867908399645  0.7734791662599383  0.769031052465716  1.0000
  C   C122      1.0  0.3499107655667441  0.22794331589700045  0.2783982872247548  1.0000
  C   C123      1.0  0.4991435659270174  0.9149132730615697  0.03977756757881419  1.0000
  C   C124      1.0  0.012193095262063273  0.10311099876612508  0.5383803360520997  1.0000
  C   C125      1.0  0.31968548506051536  0.7281119483636026  0.7563500210510019  1.0000
  C   C126      1.0  0.15631209572094587  0.26541371476376413  0.23396745367325852  1.0000
  C   C127      1.0  0.9988479313474109  0.8983628426112333  0.5303372074320012  1.0000
  C   C128      1.0  0.5154839841937034  0.11142122128910821  0.0047779442739011024  1.0000
  N   N1        1.0  0.6405895257411045  0.23402004084717454  0.1190625779881815  1.0000
  N   N2        1.0  0.8647470868264935  0.7744589637631737  0.6364877287418463  1.0000
  N   N3        1.0  0.9941887304540125  0.3656240337958178  0.36969645712132126  1.0000
  N   N4        1.0  0.4968439531854557  0.6151305079647795  0.8699006620585478  1.0000
  N   N5        1.0  0.8533812313864231  0.28192996629240874  0.3847276736476262  1.0000
  N   N6        1.0  0.6012592529654724  0.7322249805828965  0.8469436733217834  1.0000
  N   N7        1.0  0.48990869340452525  0.3862402928207889  0.10865171153086148  1.0000
  N   N8        1.0  0.005255220877756983  0.6093134326288204  0.5885530493528264  1.0000
  N   N9        1.0  0.1399901325085992  0.7846202972541393  0.641119406698904  1.0000
  N   N10       1.0  0.38123000510397154  0.2144571059930618  0.15331002129467863  1.0000
  N   N11       1.0  0.49577789127047517  0.8953798697125441  0.9093041745611631  1.0000
  N   N12       1.0  0.012544155732507657  0.1310194113281174  0.41634309905594846  1.0000
  N   N13       1.0  0.3372952598132189  0.718388207666276  0.8834793706473174  1.0000
  N   N14       1.0  0.13094104783980856  0.2739770248212594  0.365862382521704  1.0000
  N   N15       1.0  0.9942885142353305  0.8597700986145302  0.6417532979091015  1.0000
  N   N16       1.0  0.51814238992314  0.15478479394358352  0.101567189230977  1.0000
  O   O1        1.0  0.8363844991783305  0.42078839988447103  0.7126510130760733  1.0000
  O   O2        1.0  0.661334193735106  0.5687631261656138  0.19103345632890095  1.0000
  O   O3        1.0  0.8070277062325554  0.6002736629766362  0.9183452938532266  1.0000
  O   O4        1.0  0.669752932511377  0.40162259506472076  0.45857256207541464  1.0000
  O   O5        1.0  0.6614614196209073  0.42224438272234066  0.7545462346363613  1.0000
  O   O6        1.0  0.8346343170553044  0.5585418329306254  0.27243492722477086  1.0000
  O   O7        1.0  0.6735167257519024  0.57773303317682  0.5112053573082259  1.0000
  O   O8        1.0  0.8257530282691307  0.4188804252238755  0.0032077412086041666  1.0000
  O   O9        1.0  0.33800120892368263  0.9262321638632602  0.2714427154259875  1.0000
  O   O10       1.0  0.177854131156189  0.06713447854968148  0.7469005869921117  1.0000
  O   O11       1.0  0.34017443853264506  0.0769501829750068  0.5303760348194325  1.0000
  O   O12       1.0  0.17299213560078844  0.9192617730221103  0.035341002789986975  1.0000
  O   O13       1.0  0.16366108121880596  0.9366128523101097  0.35302413196531046  1.0000
  O   O14       1.0  0.3464750633665703  0.06015762207326575  0.8350095880335074  1.0000
  O   O15       1.0  0.1928439669599353  0.09386156147343341  0.08389361609491484  1.0000
  O   O16       1.0  0.3262407553421154  0.903684015555954  0.5646325899443275  1.0000
  O   O17       1.0  0.15992719350508844  0.5660057115318157  0.24011237913003514  1.0000
  O   O18       1.0  0.32815465688378564  0.42626383345371444  0.7555198603295057  1.0000
  O   O19       1.0  0.1569351409652412  0.41389540841575806  0.9775250240989627  1.0000
  O   O20       1.0  0.3211061182491745  0.580355560018449  0.4924756000606204  1.0000
  O   O21       1.0  0.33253751448081703  0.5691104347555624  0.2111530016342762  1.0000
  O   O22       1.0  0.15328579946071688  0.4341533342590918  0.692404959268345  1.0000
  O   O23       1.0  0.3152598129602673  0.4054994473577895  0.43802772392330885  1.0000
  O   O24       1.0  0.18497530858760225  0.5984015449306757  0.9322952225992758  1.0000
  O   O25       1.0  0.6735635858655805  0.08494675783822014  0.7795332797352106  1.0000
  O   O26       1.0  0.8452338871341326  0.9280166520968  0.30557556455153617  1.0000
  O   O27       1.0  0.683139384773949  0.9040089810315455  0.5619557005644349  1.0000
  O   O28       1.0  0.8200611771944754  0.09624022181458283  0.07591333603593273  1.0000
  O   O29       1.0  0.8448791409280286  0.06944889340705973  0.7383375827678359  1.0000
  O   O30       1.0  0.6680065346947303  0.9354189637583191  0.24042920931483824  1.0000
  O   O31       1.0  0.8275851557695653  0.9198117375780688  0.0011616859445904293  1.0000
  O   O32       1.0  0.6857680294293299  0.0797125562936484  0.47631040221435317  1.0000
  O   O33       1.0  0.7561151552267583  0.4972887250776992  0.8434672709924961  1.0000
  O   O34       1.0  0.7400663540085756  0.49908390487076254  0.34858339650454795  1.0000
  O   O35       1.0  0.7582035222687267  0.516263763733477  0.09739831719016206  1.0000
  O   O36       1.0  0.7386368040841254  0.48384092521820943  0.5994544049159203  1.0000
  O   O37       1.0  0.26899799244872613  0.9935444082168754  0.4251025997029126  1.0000
  O   O38       1.0  0.24725310129266131  0.0053967161067727445  0.9343021703447363  1.0000
  O   O39       1.0  0.266884974026551  0.9965069626035136  0.6803003220752251  1.0000
  O   O40       1.0  0.2499689083467934  0.9929650714834766  0.16882852364519255  1.0000
  O   O41       1.0  0.23622804173338102  0.500471905983659  0.09693169405461191  1.0000
  O   O42       1.0  0.24957683988577367  0.4863314118988029  0.5881480272569  1.0000
  O   O43       1.0  0.23763754995882438  0.4923051608209775  0.8324817155870554  1.0000
  O   O44       1.0  0.25236563278805185  0.502634392413671  0.3516554663127811  1.0000
  O   O45       1.0  0.7440277345828231  0.0015333339100004242  0.6608927785422898  1.0000
  O   O46       1.0  0.7616416404200353  0.9964372465411437  0.16598128373203544  1.0000
  O   O47       1.0  0.7529932300758329  0.9819102046120676  0.4170779766398212  1.0000
  O   O48       1.0  0.7657640435791546  0.015630954972965426  0.9145549168863638  1.0000
  O   O49       1.0  0.7402456739090466  0.3620549035855591  0.6066790936227506  1.0000
  O   O50       1.0  0.7736218279134768  0.6371059965421377  0.10961884323614172  1.0000
  O   O51       1.0  0.8840835723575811  0.5057210189066831  0.8210884731047358  1.0000
  O   O52       1.0  0.611607575854294  0.5022104902266298  0.3410998294065972  1.0000
  O   O53       1.0  0.7559431361263524  0.36974608369010664  0.8643594957475705  1.0000
  O   O54       1.0  0.7334641480337913  0.6283665762181068  0.3593526051610625  1.0000
  O   O55       1.0  0.6112821477179324  0.4791368917134129  0.6028525748777168  1.0000
  O   O56       1.0  0.8844941341950502  0.534793913159454  0.07251415135783547  1.0000
  O   O57       1.0  0.23585682365709706  0.8643726306886975  0.1737975039094371  1.0000
  O   O58       1.0  0.27508445379636093  0.12695417568078587  0.6694720005459692  1.0000
  O   O59       1.0  0.391693632334411  0.977736587059589  0.4272287250429314  1.0000
  O   O60       1.0  0.12482478266053813  0.028494085387004937  0.9181564603558641  1.0000
  O   O61       1.0  0.2539071535272639  0.8671963237932098  0.42968243872160133  1.0000
  O   O62       1.0  0.2507846142677365  0.1343194556818665  0.9184646541556571  1.0000
  O   O63       1.0  0.12267226293134091  0.0011592989571869161  0.19731094518762132  1.0000
  O   O64       1.0  0.3956353147877488  0.9958053068553939  0.694428779987568  1.0000
  O   O65       1.0  0.2470622777863534  0.6292372172228936  0.3598759384626051  1.0000
  O   O66       1.0  0.2116819510726528  0.36199536127990245  0.8252555838809551  1.0000
  O   O67       1.0  0.10714859580789451  0.5145518507008424  0.0744921909851814  1.0000
  O   O68       1.0  0.3778326184175656  0.48424787827212995  0.599780371476631  1.0000
  O   O69       1.0  0.24600537712827697  0.6325871099467226  0.09023085239242704  1.0000
  O   O70       1.0  0.253780146663008  0.36019267480749806  0.5898121688661006  1.0000
  O   O71       1.0  0.3764742794809983  0.5005693928823196  0.3455014162677016  1.0000
  O   O72       1.0  0.11126821504560658  0.5094949997041206  0.8116932413989476  1.0000
  O   O73       1.0  0.7726234522179425  0.1425482272051299  0.8903937143165054  1.0000
  O   O74       1.0  0.7395540056228886  0.8583769804934155  0.4022358794602917  1.0000
  O   O75       1.0  0.6285994940601396  0.00421590630050117  0.6692978072535876  1.0000
  O   O76       1.0  0.8942031907038206  0.9921422836039964  0.16251920039550208  1.0000
  O   O77       1.0  0.7561937772383296  0.12987482464400313  0.6075821145109161  1.0000
  O   O78       1.0  0.770500260169921  0.8622327960326073  0.15236734592215517  1.0000
  O   O79       1.0  0.8926594805223179  0.018543180500181437  0.902062759243328  1.0000
  O   O80       1.0  0.6205680019925891  0.9830782320505437  0.4082486796210974  1.0000
