data_image0
_chemical_formula_structural       Al16H64C128N16O112
_chemical_formula_sum              "Al16 H64 C128 N16 O112"
_cell_length_a       21.62769
_cell_length_b       21.646490000000004
_cell_length_c       10.3079
_cell_angle_alpha    89.86891
_cell_angle_beta     90.04471
_cell_angle_gamma    90.32585

_space_group_name_H-M_alt    "P 1"
_space_group_IT_number       1

loop_
  _space_group_symop_operation_xyz
  'x, y, z'

loop_
  _atom_site_type_symbol
  _atom_site_label
  _atom_site_symmetry_multiplicity
  _atom_site_fract_x
  _atom_site_fract_y
  _atom_site_fract_z
  _atom_site_occupancy
  Al  Al1       1.0  0.17687279754603577  0.2530835759930152  0.09813789671310647  1.0000
  Al  Al2       1.0  0.18454062199942214  0.7511413525575736  0.11295534301483437  1.0000
  Al  Al3       1.0  0.24411026987777087  0.17814002742455326  0.8455987582298948  1.0000
  Al  Al4       1.0  0.24757813604481796  0.680380188000339  0.36659281356868867  1.0000
  Al  Al5       1.0  0.2549176090917893  0.8197701452042626  0.8644360282252688  1.0000
  Al  Al6       1.0  0.2508383140299429  0.32209773727843216  0.33515445720156656  1.0000
  Al  Al7       1.0  0.32647258211892516  0.7431829019637683  0.6179945962421454  1.0000
  Al  Al8       1.0  0.3188566661250228  0.2492679539150279  0.5864647777202524  1.0000
  Al  Al9       1.0  0.6856406274717896  0.7566837958760818  0.5995959251043649  1.0000
  Al  Al10      1.0  0.6763413081837844  0.2580643405203464  0.6036495152308897  1.0000
  Al  Al11      1.0  0.7496706928774532  0.682464441023094  0.35828634578069457  1.0000
  Al  Al12      1.0  0.7462051450227773  0.178864106660454  0.8559736135731589  1.0000
  Al  Al13      1.0  0.7516297019908511  0.3165762815042347  0.3499002107092432  1.0000
  Al  Al14      1.0  0.753001253923579  0.8269768503427425  0.8473994173404137  1.0000
  Al  Al15      1.0  0.816737641929192  0.24907988785904614  0.10655019140826  1.0000
  Al  Al16      1.0  0.8181132763558194  0.753127842821178  0.10819523641012126  1.0000
  H   H1        1.0  0.9974257498797039  0.22594072143673205  0.9531705215064935  1.0000
  H   H2        1.0  0.01387008671274525  0.7307159478062509  0.2575947866682539  1.0000
  H   H3        1.0  0.09131110107196665  0.16771961928509233  0.6090206258557028  1.0000
  H   H4        1.0  0.1073127938659587  0.3339718940116906  0.5594610213299351  1.0000
  H   H5        1.0  0.09879652851393791  0.6828964378450499  0.617414638403307  1.0000
  H   H6        1.0  0.10353650854030773  0.8662204669542914  0.6576163610259514  1.0000
  H   H7        1.0  0.18304069285554153  0.9059041770683993  0.36280896588204964  1.0000
  H   H8        1.0  0.1766151465521852  0.10444220466484214  0.3325309772743638  1.0000
  H   H9        1.0  0.15786820742704322  0.6062315656972519  0.886418388335731  1.0000
  H   H10       1.0  0.15841293655157018  0.41099051053373664  0.8648266792526432  1.0000
  H   H11       1.0  0.22054053643390067  0.002946809065756728  0.993053335372574  1.0000
  H   H12       1.0  0.24062591704062272  0.4972142398346713  0.20017701453739697  1.0000
  H   H13       1.0  0.2674504242494766  0.9978129172722063  0.7153820207422101  1.0000
  H   H14       1.0  0.26936998472340024  0.5063201880791425  0.4959346661371408  1.0000
  H   H15       1.0  0.3429430553066813  0.0941776147834107  0.3840157360781064  1.0000
  H   H16       1.0  0.3552690581489416  0.8909413036878807  0.4053578514038475  1.0000
  H   H17       1.0  0.34394243519572437  0.3938987544884053  0.815294971857941  1.0000
  H   H18       1.0  0.3243683963407553  0.5900046702314552  0.857448096664323  1.0000
  H   H19       1.0  0.40344853488354526  0.6624690545740466  0.13621546662232603  1.0000
  H   H20       1.0  0.4113724870795478  0.8183637750123364  0.10080749286030947  1.0000
  H   H21       1.0  0.3948115699079127  0.1622704956109921  0.07620736399285542  1.0000
  H   H22       1.0  0.4018660755162824  0.3284462893596559  0.09810732783705026  1.0000
  H   H23       1.0  0.5040916768759949  0.7742976933777972  0.7378463019485764  1.0000
  H   H24       1.0  0.5019529357582685  0.2696807788735929  0.4553377774903219  1.0000
  H   H25       1.0  0.5002983729195364  0.7256334728696023  0.4806477494204135  1.0000
  H   H26       1.0  0.5002975457510361  0.23592371275192747  0.757817456055419  1.0000
  H   H27       1.0  0.5977978847249883  0.6545001907894036  0.13988138693874472  1.0000
  H   H28       1.0  0.609634362780589  0.8168011258483705  0.09525756449695913  1.0000
  H   H29       1.0  0.5923847772447756  0.17797904174567625  0.09612495611252125  1.0000
  H   H30       1.0  0.5997398220787752  0.32805019467789703  0.10591369424550677  1.0000
  H   H31       1.0  0.6615657895093336  0.40115489302739993  0.8024348077132217  1.0000
  H   H32       1.0  0.674438938557515  0.6005638505153714  0.8346305067719711  1.0000
  H   H33       1.0  0.6063355018979659  0.09172919192971032  0.4283762276859044  1.0000
  H   H34       1.0  0.6471405888112857  0.9020448309203182  0.3882164613549666  1.0000
  H   H35       1.0  0.7386632651897032  0.5007661589654594  0.48017125427575613  1.0000
  H   H36       1.0  0.7312069314582469  0.011423317260030652  0.7093001163248791  1.0000
  H   H37       1.0  0.7775233097210077  0.4998882611532848  0.22383944240422704  1.0000
  H   H38       1.0  0.758755316307635  0.00782520393124479  0.003234011898802569  1.0000
  H   H39       1.0  0.8576916349026883  0.6035451528349641  0.9061157710422859  1.0000
  H   H40       1.0  0.8653222087141677  0.40869376928123113  0.8975916976768944  1.0000
  H   H41       1.0  0.844948530741948  0.9027005888703018  0.3066823586590074  1.0000
  H   H42       1.0  0.8228366764192296  0.10044558124813587  0.3476695073697906  1.0000
  H   H43       1.0  0.8920792417049166  0.1575265183696921  0.6243137553011594  1.0000
  H   H44       1.0  0.903512213404109  0.32610963594298986  0.6002743455743188  1.0000
  H   H45       1.0  0.8984664724456941  0.6708841659083085  0.5735657752897815  1.0000
  H   H46       1.0  0.9075350191397621  0.8396705541755356  0.6407320628887504  1.0000
  H   H47       1.0  0.9912803151502216  0.2805791506352662  0.2419928475458823  1.0000
  H   H48       1.0  0.012425385655792098  0.7814779388459705  0.9816051768138807  1.0000
  H   H49       1.0  0.28834307158759964  0.7560828654127377  0.0167499997805178  1.0000
  H   H50       1.0  0.22718548728899632  0.7641166662103659  0.52770627855083  1.0000
  H   H51       1.0  0.241791489787576  0.7235120605717088  0.7625599460234991  1.0000
  H   H52       1.0  0.26118900010522644  0.7719022841288035  0.2827653815978617  1.0000
  H   H53       1.0  0.7512740446225266  0.7210005684258196  0.7846267008732426  1.0000
  H   H54       1.0  0.7571620414902182  0.7852892206050569  0.2776571633071321  1.0000
  H   H55       1.0  0.7913404972621777  0.7540870044340396  0.5150841296316981  1.0000
  H   H56       1.0  0.7248628187434194  0.7409915656410944  0.005821145810726236  1.0000
  H   H57       1.0  0.28005615690357705  0.23501928285302506  0.1935036998666974  1.0000
  H   H58       1.0  0.21897310701808848  0.2593496485195788  0.6876886456421321  1.0000
  H   H59       1.0  0.25569394481367635  0.2766530091879275  0.9497150403984647  1.0000
  H   H60       1.0  0.22805769993749392  0.22484856715449353  0.44825445570798667  1.0000
  H   H61       1.0  0.752211938342307  0.21582744939595577  0.47208159364608626  1.0000
  H   H62       1.0  0.7413197465771691  0.27876268447759767  0.9133200693213868  1.0000
  H   H63       1.0  0.7747876511926514  0.2493804679938342  0.6897085925398571  1.0000
  H   H64       1.0  0.7207957513325446  0.2623477433911671  0.1570392886433056  1.0000
  C   C1        1.0  0.9966553316232994  0.20830401385857325  0.8567106610922347  1.0000
  C   C2        1.0  0.9998112290005897  0.6739808470624712  0.6062595850161145  1.0000
  C   C3        1.0  0.006324810951469972  0.7118850799112736  0.3514793808018425  1.0000
  C   C4        1.0  0.005231055374431961  0.8484835802567919  0.6379070932257577  1.0000
  C   C5        1.0  0.04969749988403873  0.1751193720490441  0.6605430762485452  1.0000
  C   C6        1.0  0.04976827979123673  0.19169903428943605  0.7967657703582282  1.0000
  C   C7        1.0  0.05491345755874762  0.30127672469430467  0.40146138491219857  1.0000
  C   C8        1.0  0.05923894665371162  0.3213850773438801  0.5258632217383028  1.0000
  C   C9        1.0  0.06125826494322803  0.8125574597229084  0.823238977759518  1.0000
  C   C10       1.0  0.0622737143599438  0.7047090400682068  0.42853591344079517  1.0000
  C   C11       1.0  0.05717370580938692  0.6843258364007114  0.5553314484833063  1.0000
  C   C12       1.0  0.062339319905954385  0.8413283454240852  0.6984911839117491  1.0000
  C   C13       1.0  0.12236106188149455  0.7142179300373592  0.35294207290222296  1.0000
  C   C14       1.0  0.11349054046500896  0.20668454265205716  0.8570730599200374  1.0000
  C   C15       1.0  0.11422868683435868  0.29926031759621385  0.31881755440479614  1.0000
  C   C16       1.0  0.12088241896719279  0.7990556640595733  0.8834935609910428  1.0000
  C   C17       1.0  0.19029624689864236  0.9469771789043911  0.3067930789146539  1.0000
  C   C18       1.0  0.18081590183813326  0.006116981863389458  0.3607714915998845  1.0000
  C   C19       1.0  0.18157726507341834  0.06006020269412056  0.29131634218635366  1.0000
  C   C20       1.0  0.14927232416924088  0.5093248111867951  0.867050579052655  1.0000
  C   C21       1.0  0.16509515449214146  0.5628285322730329  0.9363022111534056  1.0000
  C   C22       1.0  0.1682344623613357  0.4534691213367992  0.9232904977553343  1.0000
  C   C23       1.0  0.20498880879706882  0.9447984051517814  0.1749726260111995  1.0000
  C   C24       1.0  0.19876844795022064  0.05552438769955429  0.16229021730989598  1.0000
  C   C25       1.0  0.21637317915211055  0.8845864969647445  0.10865773254235428  1.0000
  C   C26       1.0  0.19063060718285588  0.44800880025550527  0.04867778606933495  1.0000
  C   C27       1.0  0.20189619235488285  0.3892586076990406  0.11227118615122385  1.0000
  C   C28       1.0  0.21063134714359863  0.6183002175403144  0.12883428213855727  1.0000
  C   C29       1.0  0.2128718474714683  0.9988124030283014  0.10079743840675674  1.0000
  C   C30       1.0  0.2033898904734971  0.1174508070537532  0.08495259362070821  1.0000
  C   C31       1.0  0.19974424128029913  0.5579863543292537  0.0570166271798932  1.0000
  C   C32       1.0  0.21565927711938612  0.5016369129155585  0.11167129596940066  1.0000
  C   C33       1.0  0.2970738419929797  0.9952104568925846  0.6252641398144956  1.0000
  C   C34       1.0  0.2905244754983523  0.500938199027088  0.5931451413739233  1.0000
  C   C35       1.0  0.3004210039144803  0.38308454885680365  0.5621111604990936  1.0000
  C   C36       1.0  0.3219799203490701  0.9415445417159682  0.5751083451923785  1.0000
  C   C37       1.0  0.3117422475632639  0.8823075352534427  0.6470527925923324  1.0000
  C   C38       1.0  0.28908475376796244  0.11479364474111586  0.6140545397556072  1.0000
  C   C39       1.0  0.28587444072695783  0.6118309504917163  0.5989353686548394  1.0000
  C   C40       1.0  0.30727896858570575  0.05276621954606183  0.5573368715269077  1.0000
  C   C41       1.0  0.3093825387755801  0.4427819932448035  0.638080214346072  1.0000
  C   C42       1.0  0.29863670847681145  0.555199878243537  0.6681916069448478  1.0000
  C   C43       1.0  0.3285373186232951  0.05027491282791337  0.4292703513033621  1.0000
  C   C44       1.0  0.3456511210897598  0.9379716658192268  0.4465812108937102  1.0000
  C   C45       1.0  0.34648110380015545  0.9938854926778647  0.37769007810126615  1.0000
  C   C46       1.0  0.33280591941576626  0.43779147546860736  0.7665320585992637  1.0000
  C   C47       1.0  0.3355527906985967  0.4927158832818251  0.8336759312861004  1.0000
  C   C48       1.0  0.3227437422087079  0.5515475248273819  0.7908103508501746  1.0000
  C   C49       1.0  0.38658775894475633  0.699291258894079  0.38827945400047864  1.0000
  C   C50       1.0  0.38145644820176133  0.20151998398265944  0.8299053259085115  1.0000
  C   C51       1.0  0.3815622391385473  0.29202554849722473  0.3572269950113283  1.0000
  C   C52       1.0  0.3888852611575369  0.7858906273342336  0.8498605970055543  1.0000
  C   C53       1.0  0.446684776459698  0.6703372499867644  0.19141506370523748  1.0000
  C   C54       1.0  0.45567335397560293  0.8101009581659281  0.04533263619380756  1.0000
  C   C55       1.0  0.45138852215705144  0.7933573320640799  0.9109094597546968  1.0000
  C   C56       1.0  0.44614938595650927  0.6952990255439457  0.31753826779969274  1.0000
  C   C57       1.0  0.4374909597284825  0.17013549505788925  0.02814593319466217  1.0000
  C   C58       1.0  0.44307925496235195  0.1933331173501689  0.9004240063924852  1.0000
  C   C59       1.0  0.4458220502710754  0.2972464696441732  0.28673724678983076  1.0000
  C   C60       1.0  0.44480076146519243  0.31496760131431123  0.1543964778552874  1.0000
  C   C61       1.0  0.5017532151291543  0.6538240801816496  0.1339976388818267  1.0000
  C   C62       1.0  0.5062960051780678  0.7882194350361023  0.8396256027589071  1.0000
  C   C63       1.0  0.5145338822379661  0.8174617023672174  0.10682657343518899  1.0000
  C   C64       1.0  0.5002811764445445  0.28517283622416295  0.3521901105656135  1.0000
  C   C65       1.0  0.5026384721882178  0.7106234967638253  0.37728573462334725  1.0000
  C   C66       1.0  0.49362206812678633  0.16651613347301583  0.09663588514123889  1.0000
  C   C67       1.0  0.4990746256417732  0.2074224964429252  0.8453900769016516  1.0000
  C   C68       1.0  0.501296215742449  0.319656256423774  0.09258715925922516  1.0000
  C   C69       1.0  0.5575954574557037  0.6657297702636525  0.19581680626334505  1.0000
  C   C70       1.0  0.5579415915013721  0.6944942775713595  0.32008630537061133  1.0000
  C   C71       1.0  0.5626012397579327  0.8023367752051663  0.9019376935093651  1.0000
  C   C72       1.0  0.568355428540352  0.8127300980571283  0.03836110763369824  1.0000
  C   C73       1.0  0.5579898659775712  0.29661817663487716  0.28545460449630217  1.0000
  C   C74       1.0  0.5535952507757521  0.1957773991442188  0.9113793851618534  1.0000
  C   C75       1.0  0.5516156171974326  0.17581856322327302  0.03551345918252499  1.0000
  C   C76       1.0  0.557598678793654  0.3137853343019954  0.1539443349774267  1.0000
  C   C77       1.0  0.6143166958693389  0.20929866509307912  0.8346762203869709  1.0000
  C   C78       1.0  0.6189040948735208  0.710614190675019  0.38166071510545085  1.0000
  C   C79       1.0  0.6212588537312808  0.792474086079761  0.8296121819317095  1.0000
  C   C80       1.0  0.6150546810488136  0.2956348016291051  0.36485156343411185  1.0000
  C   C81       1.0  0.676545548788622  0.4465702165738128  0.7610080065809163  1.0000
  C   C82       1.0  0.6654896072521942  0.503673673365132  0.8267418925275245  1.0000
  C   C83       1.0  0.678985365072188  0.5592777099269658  0.7722528127493598  1.0000
  C   C84       1.0  0.6280563573798384  0.9953099837510354  0.4060840247073817  1.0000
  C   C85       1.0  0.6325870799617479  0.052366985060457914  0.4662195251408416  1.0000
  C   C86       1.0  0.6584885855711767  0.9425863515798001  0.44674971127277885  1.0000
  C   C87       1.0  0.7036470915855644  0.44849507376683234  0.636460302567695  1.0000
  C   C88       1.0  0.7026436232705272  0.5604599622315259  0.6440634019575645  1.0000
  C   C89       1.0  0.7122835435794737  0.3884054921003902  0.5685247949445202  1.0000
  C   C90       1.0  0.6906379544334612  0.9462980895546124  0.5632872618679199  1.0000
  C   C91       1.0  0.707437866140894  0.8890084312702066  0.6271041572018027  1.0000
  C   C92       1.0  0.69223387663871  0.12192010971850296  0.6334364023785294  1.0000
  C   C93       1.0  0.7202040014055591  0.5061566146883688  0.5803531445616371  1.0000
  C   C94       1.0  0.6766119307817352  0.05746501099536195  0.5770471696078496  1.0000
  C   C95       1.0  0.7050015257971977  0.6227737577000048  0.577004743771998  1.0000
  C   C96       1.0  0.7037845041374059  0.004671645059943262  0.6229839257613162  1.0000
  C   C97       1.0  0.8015726019783883  0.5014029056809219  0.1318480871286039  1.0000
  C   C98       1.0  0.7754296510139056  0.0037135665673107  0.10403600952241308  1.0000
  C   C99       1.0  0.8155617898304298  0.4462471038670204  0.06632100239339382  1.0000
  C   C100      1.0  0.7946163138014227  0.8872980707883248  0.08641144302613285  1.0000
  C   C101      1.0  0.8036236344204807  0.38559106114874964  0.13218128787761674  1.0000
  C   C102      1.0  0.7990416285566541  0.6181887745122066  0.13704681005329605  1.0000
  C   C103      1.0  0.788780816813145  0.11662093319976435  0.09784059959893864  1.0000
  C   C104      1.0  0.8178325833768513  0.5593554503096172  0.08100220425258095  1.0000
  C   C105      1.0  0.7988517578082359  0.9467545987986251  0.15615326175195282  1.0000
  C   C106      1.0  0.7892795683403611  0.059055961105710555  0.1724801983772309  1.0000
  C   C107      1.0  0.8451600258681273  0.5611559606569129  0.9532649580876047  1.0000
  C   C108      1.0  0.8463226349134674  0.44999948989547994  0.9469753298628385  1.0000
  C   C109      1.0  0.8576266845034175  0.5069789073671679  0.8928661520436031  1.0000
  C   C110      1.0  0.8208854758907368  0.944882181894245  0.2814163938807934  1.0000
  C   C111      1.0  0.8228158670891594  0.0003675480709870449  0.3597982672563677  1.0000
  C   C112      1.0  0.8147574759021792  0.056429891866024144  0.29933237654783773  1.0000
  C   C113      1.0  0.8828230926376043  0.21037205683359436  0.8669925981117989  1.0000
  C   C114      1.0  0.8886301354820575  0.7111418845666224  0.3332259743988773  1.0000
  C   C115      1.0  0.883438517951668  0.7994253615058483  0.8827941711064283  1.0000
  C   C116      1.0  0.8833945157280507  0.2815815353247547  0.3470305771146493  1.0000
  C   C117      1.0  0.9361779858791367  0.16747220152509232  0.6652830904384058  1.0000
  C   C118      1.0  0.944320736521379  0.3174066449479348  0.5402368217355763  1.0000
  C   C119      1.0  0.943484542908073  0.2935409056923344  0.4125266428323088  1.0000
  C   C120      1.0  0.940306387554086  0.19492783435145586  0.7926037562797581  1.0000
  C   C121      1.0  0.9442568634354637  0.6796953634346057  0.5353538682185774  1.0000
  C   C122      1.0  0.9495964540932118  0.6977297972324827  0.4051924263449026  1.0000
  C   C123      1.0  0.9460208075634634  0.8096555883188351  0.8234881213753702  1.0000
  C   C124      1.0  0.9482918754367329  0.832809565479208  0.6973102629245082  1.0000
  C   C125      1.0  0.9934613176524003  0.1649366616942607  0.597729360040343  1.0000
  C   C126      1.0  0.9985701847818322  0.2866512474401741  0.3460599207119425  1.0000
  C   C127      1.0  0.0023189474655757373  0.3256441943263485  0.5979859494233717  1.0000
  C   C128      1.0  0.005668152051570941  0.7987658397605004  0.8844136385641062  1.0000
  N   N1        1.0  0.00019156953916884794  0.8701523305462188  0.5016593347720001  1.0000
  N   N2        1.0  0.5205651021021511  0.8404088296283195  0.24262193192596512  1.0000
  N   N3        1.0  0.9980456145461203  0.15486448536904682  0.4603710520728884  1.0000
  N   N4        1.0  0.4944766677894561  0.1510727838293015  0.23888257645746927  1.0000
  N   N5        1.0  0.9982223590669542  0.6551975010231851  0.7456284228048146  1.0000
  N   N6        1.0  0.007930596046145526  0.34779834447487523  0.7401208339355207  1.0000
  N   N7        1.0  0.3448450931501073  0.4834425589125534  0.9774158932800928  1.0000
  N   N8        1.0  0.13119593241343272  0.5101286760386898  0.7313708215542895  1.0000
  N   N9        1.0  0.15894378214202703  0.006014783412487683  0.5052568248500697  1.0000
  N   N10       1.0  0.8416123590605578  0.995471393148116  0.5001700435778808  1.0000
  N   N11       1.0  0.5899008050832546  0.9908811390452633  0.2811692817224615  1.0000
  N   N12       1.0  0.4999106955319177  0.6328577210488822  0.9962310219407084  1.0000
  N   N13       1.0  0.886628910207588  0.5097661775895573  0.7591673877114399  1.0000
  N   N14       1.0  0.6521824198498025  0.4968850967502547  0.9645916308299535  1.0000
  N   N15       1.0  0.37486667179585087  0.9934361017177856  0.24323812033431144  1.0000
  N   N16       1.0  0.5039495295833643  0.33969085062295096  0.9511290153535288  1.0000
  O   O1        1.0  0.11184168655969907  0.27267450943172883  0.2068989813545332  1.0000
  O   O2        1.0  0.12261205061825843  0.7631024466119083  0.9825936089549555  1.0000
  O   O3        1.0  0.12240216897070545  0.7458691192674836  0.2482046798728439  1.0000
  O   O4        1.0  0.11378080507070149  0.23712580970992717  0.9663609439882586  1.0000
  O   O5        1.0  0.16635703019399325  0.6843563316733765  0.4054263796255822  1.0000
  O   O6        1.0  0.15983327553459886  0.1854925066181481  0.8014502677438619  1.0000
  O   O7        1.0  0.1626606788050092  0.3224524507891112  0.37678402961473567  1.0000
  O   O8        1.0  0.168289184438669  0.8251309146035677  0.8374236027306533  1.0000
  O   O9        1.0  0.18574515637550568  0.8377772283065023  0.15839687949565998  1.0000
  O   O10       1.0  0.17261978399186037  0.1634582076453951  0.13585191818747408  1.0000
  O   O11       1.0  0.18206297932256452  0.6656104356463692  0.08807180254013068  1.0000
  O   O12       1.0  0.181772916746919  0.34012702304834314  0.052697399244221704  1.0000
  O   O13       1.0  0.24125219174504972  0.2374036492554889  0.9786130048091459  1.0000
  O   O14       1.0  0.23293574078132903  0.12121518422097319  0.9815317503929963  1.0000
  O   O15       1.0  0.24962310618309055  0.883155590386829  0.004826030426644312  1.0000
  O   O16       1.0  0.2353061524924616  0.38883058902746404  0.21673799466567997  1.0000
  O   O17       1.0  0.24222654254937467  0.25597735815959066  0.22404923841474872  1.0000
  O   O18       1.0  0.23867747632893518  0.6154950189736043  0.23789264158110365  1.0000
  O   O19       1.0  0.24501110999513004  0.7366088431765417  0.23779718248030454  1.0000
  O   O20       1.0  0.2616038327039291  0.7432024608218281  0.4844155288019393  1.0000
  O   O21       1.0  0.24695854851757246  0.7570130389961961  0.9859047401631461  1.0000
  O   O22       1.0  0.26570616101207817  0.7597050273164248  0.7385426737508864  1.0000
  O   O23       1.0  0.25898065859942504  0.24679713127251002  0.7222932953409429  1.0000
  O   O24       1.0  0.2763050506852828  0.8818208828036618  0.7440937109757199  1.0000
  O   O25       1.0  0.24900702668278993  0.11397233382840667  0.7053306250472137  1.0000
  O   O26       1.0  0.25312183496693924  0.611341094794872  0.4960241763852589  1.0000
  O   O27       1.0  0.26306334345483273  0.3830104675973416  0.46465646797945204  1.0000
  O   O28       1.0  0.252092312034711  0.26123912016504813  0.47833089443166554  1.0000
  O   O29       1.0  0.31444808556941545  0.1616987187336294  0.5621710137957348  1.0000
  O   O30       1.0  0.33448442420495833  0.8328132951252837  0.5951494380936561  1.0000
  O   O31       1.0  0.331437394852062  0.33632525767011207  0.6071767347291989  1.0000
  O   O32       1.0  0.3070942041380538  0.6599985873852408  0.6578522788250066  1.0000
  O   O33       1.0  0.3366006103345656  0.6696258901322161  0.34918508818537125  1.0000
  O   O34       1.0  0.3335103724923225  0.1729922512151239  0.87813740980986  1.0000
  O   O35       1.0  0.33882305142226493  0.32158358731854847  0.3010305867526705  1.0000
  O   O36       1.0  0.34192153581636126  0.8123476990912243  0.9023561834598531  1.0000
  O   O37       1.0  0.3806317912045214  0.2539290303281467  0.4495300082729777  1.0000
  O   O38       1.0  0.38663342307778176  0.7541446985799886  0.7454646634634257  1.0000
  O   O39       1.0  0.3871461705664967  0.7341360830289729  0.4873151249397575  1.0000
  O   O40       1.0  0.3820132820163948  0.23398661609733748  0.7303436539615112  1.0000
  O   O41       1.0  0.6199695517516874  0.7644893660712675  0.7231778583023062  1.0000
  O   O42       1.0  0.6122440768887052  0.26795598698646644  0.4764790782925147  1.0000
  O   O43       1.0  0.6143988756851603  0.24790395095746548  0.7452932313438478  1.0000
  O   O44       1.0  0.6248983868053687  0.7499828372493547  0.46775238692719945  1.0000
  O   O45       1.0  0.6600471044023303  0.17718678402871763  0.8898346130308872  1.0000
  O   O46       1.0  0.6632558132890113  0.6829759730025837  0.32864427225624326  1.0000
  O   O47       1.0  0.6688905754807127  0.8162819274315228  0.8896444146676271  1.0000
  O   O48       1.0  0.6625092771598987  0.32611501951767474  0.3206062867059771  1.0000
  O   O49       1.0  0.6792913124134902  0.3456736576802899  0.6213540963180734  1.0000
  O   O50       1.0  0.6742602700182315  0.6664985976001253  0.6292830011366706  1.0000
  O   O51       1.0  0.6648533250415205  0.16680513073465694  0.5800935458274968  1.0000
  O   O52       1.0  0.6929238843450309  0.840812727680344  0.565769330426721  1.0000
  O   O53       1.0  0.7494906216942098  0.7496956952735951  0.4752305468289134  1.0000
  O   O54       1.0  0.7434466261001306  0.6227870147484399  0.4853483054098351  1.0000
  O   O55       1.0  0.7410060672227486  0.3864307088363296  0.4629226995069554  1.0000
  O   O56       1.0  0.7369566662789253  0.8904969221704843  0.7382139113582036  1.0000
  O   O57       1.0  0.7351730963529366  0.12103876702314095  0.7152491523608777  1.0000
  O   O58       1.0  0.7457368016988074  0.7558140664369437  0.7269495308256794  1.0000
  O   O59       1.0  0.7350145171560322  0.24673664868748535  0.7334024750412679  1.0000
  O   O60       1.0  0.7555230582355024  0.24708379224673543  0.9672489786479082  1.0000
  O   O61       1.0  0.7351188764202826  0.25827047518870105  0.47997009923568934  1.0000
  O   O62       1.0  0.7534166137453783  0.253428967671105  0.22029145818922147  1.0000
  O   O63       1.0  0.7692231695062125  0.38633156009434083  0.23528880295712637  1.0000
  O   O64       1.0  0.7572081401940111  0.7441677943563939  0.23135775803167002  1.0000
  O   O65       1.0  0.758691741106146  0.6192700475796025  0.22874309563904283  1.0000
  O   O66       1.0  0.7651986395302218  0.11401750653325979  0.977728993853193  1.0000
  O   O67       1.0  0.7634676194106411  0.8853430486027266  0.9829416905668635  1.0000
  O   O68       1.0  0.7610468161232412  0.7619055679731837  0.9821344694812804  1.0000
  O   O69       1.0  0.8271979478887095  0.6669027664248478  0.08487352878955283  1.0000
  O   O70       1.0  0.8270981230777248  0.33715618864936037  0.07995251309282725  1.0000
  O   O71       1.0  0.8167802694640759  0.8410088436183406  0.14768565204013878  1.0000
  O   O72       1.0  0.8141994080437179  0.16307225222149382  0.14649423130851325  1.0000
  O   O73       1.0  0.8312484035243981  0.19557269948367115  0.8050437123692766  1.0000
  O   O74       1.0  0.8416396913898606  0.6833210344249764  0.3883097735524743  1.0000
  O   O75       1.0  0.841428273765867  0.8272608655128744  0.822122119473971  1.0000
  O   O76       1.0  0.8353227069412568  0.3056728632001151  0.40595021335722903  1.0000
  O   O77       1.0  0.882284689845885  0.7620188947616423  0.9783883871138136  1.0000
  O   O78       1.0  0.8850432356154286  0.2585381171874143  0.23069286897026048  1.0000
  O   O79       1.0  0.8828035746155466  0.23247459398734807  0.9802783585654142  1.0000
  O   O80       1.0  0.8913817631316863  0.7415890375419867  0.2264985417174431  1.0000
  O   O81       1.0  0.9493031711204551  0.8670203748875213  0.4447506940142806  1.0000
  O   O82       1.0  0.051343092814039266  0.8821071312540371  0.45134838976457536  1.0000
  O   O83       1.0  0.4727847472083575  0.8504111197098255  0.29907173783162405  1.0000
  O   O84       1.0  0.5754786467129531  0.8440700079501331  0.2873374998012206  1.0000
  O   O85       1.0  0.05022433423359459  0.1581465698689811  0.41307509852759594  1.0000
  O   O86       1.0  0.9505370546951277  0.14614338390944495  0.3883808891176695  1.0000
  O   O87       1.0  0.4425056721383535  0.14866098361661484  0.2864761065150985  1.0000
  O   O88       1.0  0.5462115772573577  0.14273736441993887  0.2881061978941248  1.0000
  O   O89       1.0  0.9463981918178817  0.6372116915617639  0.7855895341272183  1.0000
  O   O90       1.0  0.04670449751335426  0.6557527213216947  0.8122425779062032  1.0000
  O   O91       1.0  0.9601195796778571  0.3423904636726923  0.8059422859846548  1.0000
  O   O92       1.0  0.060063548015279994  0.362636468564918  0.7781307273993681  1.0000
  O   O93       1.0  0.3619433554571108  0.5285549409594357  0.041522599779490445  1.0000
  O   O94       1.0  0.33368181295276733  0.4311483482321077  0.025677005080995345  1.0000
  O   O95       1.0  0.11994599340583313  0.5632985403960559  0.6943629100725796  1.0000
  O   O96       1.0  0.12617553409522023  0.4619962894791477  0.6683247925595179  1.0000
  O   O97       1.0  0.13991438951685106  0.0543360747095468  0.5478284648303855  1.0000
  O   O98       1.0  0.16177055382023214  0.9569475093895043  0.5673150299768633  1.0000
  O   O99       1.0  0.8521985183919073  0.0430515675875005  0.5627613976488853  1.0000
  O   O100      1.0  0.8457875840286723  0.941431806431124  0.5438075730208227  1.0000
  O   O101      1.0  0.5376588178813069  0.012882877914312734  0.27532533044223584  1.0000
  O   O102      1.0  0.6166286677158012  0.9616723949951967  0.19422587913460093  1.0000
  O   O103      1.0  0.4497328904195661  0.638934656194144  0.9427448874862845  1.0000
  O   O104      1.0  0.5480817493434339  0.6150298756780803  0.9398918800230092  1.0000
  O   O105      1.0  0.8589366392794184  0.5427835595907373  0.6748114178363226  1.0000
  O   O106      1.0  0.9359573622701987  0.4801863092200611  0.744700936329611  1.0000
  O   O107      1.0  0.6505222492874867  0.5461915804248183  0.025232083869696463  1.0000
  O   O108      1.0  0.6466835518770164  0.4432210293096393  0.003833136240016095  1.0000
  O   O109      1.0  0.37516907902089985  0.04292674233470976  0.18284983052694734  1.0000
  O   O110      1.0  0.39522214765782454  0.9446377173697497  0.20208130320489212  1.0000
  O   O111      1.0  0.45171387716515504  0.35360120418859914  0.9054283361008526  1.0000
  O   O112      1.0  0.5527885189078794  0.33572367072517856  0.8938036444657329  1.0000
