data_image0
_chemical_formula_structural       Al16H64C128N16O112
_chemical_formula_sum              "Al16 H64 C128 N16 O112"
_cell_length_a       21.62769
_cell_length_b       21.646490000000004
_cell_length_c       10.3079
_cell_angle_alpha    89.86891
_cell_angle_beta     90.04471
_cell_angle_gamma    90.32585

_space_group_name_H-M_alt    "P 1"
_space_group_IT_number       1

loop_
  _space_group_symop_operation_xyz
  'x, y, z'

loop_
  _atom_site_type_symbol
  _atom_site_label
  _atom_site_symmetry_multiplicity
  _atom_site_fract_x
  _atom_site_fract_y
  _atom_site_fract_z
  _atom_site_occupancy
  Al  Al1       1.0  0.1831508727768569  0.24728759013036686  0.0981387911753002  1.0000
  Al  Al2       1.0  0.18793513614210708  0.7517892832580639  0.11394186690522047  1.0000
  Al  Al3       1.0  0.2468737942076116  0.17549636185446074  0.8547549912954928  1.0000
  Al  Al4       1.0  0.25471300366944  0.6777697477661536  0.36825708465705204  1.0000
  Al  Al5       1.0  0.25462538085170744  0.8222014568960927  0.8696673039470433  1.0000
  Al  Al6       1.0  0.25092591756861915  0.322206526771474  0.3449149120907392  1.0000
  Al  Al7       1.0  0.3245708286082966  0.7458232548203017  0.6238179079527709  1.0000
  Al  Al8       1.0  0.3153778187500705  0.2436913826426271  0.5903869372018561  1.0000
  Al  Al9       1.0  0.6827407168132746  0.7544179257895278  0.5901603996142445  1.0000
  Al  Al10      1.0  0.6805001951748808  0.25363194975361675  0.5987541847630586  1.0000
  Al  Al11      1.0  0.754438620643053  0.682919514643053  0.35173721874543873  1.0000
  Al  Al12      1.0  0.7502582702563154  0.19021493277333712  0.8438420306009163  1.0000
  Al  Al13      1.0  0.7478884147891134  0.3298904524273126  0.34676506445259914  1.0000
  Al  Al14      1.0  0.7496185657572467  0.8162474515878018  0.8486308793221294  1.0000
  Al  Al15      1.0  0.8204203306050666  0.25681296361423595  0.0992672619472451  1.0000
  Al  Al16      1.0  0.8241817958334688  0.75011347983678  0.10242484057840669  1.0000
  H   H1        1.0  0.9950712418643199  0.22679715538033432  0.9808480853865791  1.0000
  H   H2        1.0  0.005370782262416503  0.7374241597898908  0.24999810082454782  1.0000
  H   H3        1.0  0.10467395593612862  0.1614843530037113  0.6438721713732912  1.0000
  H   H4        1.0  0.1024245830089612  0.3161011896619298  0.573734052538368  1.0000
  H   H5        1.0  0.10402595453481205  0.6603736860574536  0.5893287224576838  1.0000
  H   H6        1.0  0.10362949854300635  0.8551537871345184  0.6398727379251847  1.0000
  H   H7        1.0  0.18065497218433751  0.8997643652761487  0.359519697580581  1.0000
  H   H8        1.0  0.1681166178625244  0.09740150716876596  0.3549474901250292  1.0000
  H   H9        1.0  0.1622832119978503  0.6109427673507823  0.9054547712421936  1.0000
  H   H10       1.0  0.15436045789513644  0.40831846629058455  0.8763181716912375  1.0000
  H   H11       1.0  0.23526441003711793  0.0008747231178174442  0.01258688694793264  1.0000
  H   H12       1.0  0.23787728615027845  0.5001776417615714  0.20608973754262255  1.0000
  H   H13       1.0  0.2835130489362841  0.9925398266585094  0.7322087386032905  1.0000
  H   H14       1.0  0.26069891752926116  0.49634806550894417  0.5065925071994734  1.0000
  H   H15       1.0  0.32375620126209337  0.08786363481289015  0.3815403973286738  1.0000
  H   H16       1.0  0.34739664980022816  0.8901695379573632  0.4155835673029669  1.0000
  H   H17       1.0  0.3443860024421053  0.3893503499638564  0.803283245849523  1.0000
  H   H18       1.0  0.332230503876879  0.5822693952724244  0.8564728563854065  1.0000
  H   H19       1.0  0.3983167922195798  0.6573517756825324  0.13629002421774172  1.0000
  H   H20       1.0  0.4078527678618289  0.825281057367473  0.11362296202918655  1.0000
  H   H21       1.0  0.39364200140010597  0.17400649276056668  0.07079809514519507  1.0000
  H   H22       1.0  0.39795017967592433  0.32217123825535054  0.11594714733933982  1.0000
  H   H23       1.0  0.502699524890363  0.7773306041574195  0.7585879314311201  1.0000
  H   H24       1.0  0.491891351804263  0.27612946949595535  0.4709895338883001  1.0000
  H   H25       1.0  0.49795647307480234  0.7173294940930122  0.47345176517710447  1.0000
  H   H26       1.0  0.49722991555262425  0.23763669252197805  0.7449509365724881  1.0000
  H   H27       1.0  0.5975614911129234  0.6621510317997129  0.13377290283032547  1.0000
  H   H28       1.0  0.6040299781692379  0.8281549095349402  0.10698296656026898  1.0000
  H   H29       1.0  0.5933263204503373  0.1671101385530791  0.07604259765389913  1.0000
  H   H30       1.0  0.5908421054065168  0.342735222123256  0.11450345625471424  1.0000
  H   H31       1.0  0.6435916929483004  0.40760552228813196  0.8044088566707662  1.0000
  H   H32       1.0  0.6770990351212545  0.6065117293316148  0.81365274024042  1.0000
  H   H33       1.0  0.6360612481057217  0.10332684651387757  0.41111036963327824  1.0000
  H   H34       1.0  0.6542595830133062  0.8984322169404357  0.39165709749500394  1.0000
  H   H35       1.0  0.7458879965070604  0.49952187276291776  0.4951854570366547  1.0000
  H   H36       1.0  0.7198644941198087  0.0019966775907998002  0.7257591015695007  1.0000
  H   H37       1.0  0.7723375488522713  0.5071615978841392  0.20229420363951345  1.0000
  H   H38       1.0  0.7743702534150503  0.008963719392611785  0.9728560327012648  1.0000
  H   H39       1.0  0.8570603016951154  0.6071460783702871  0.8833766056936186  1.0000
  H   H40       1.0  0.8665097539792503  0.4081656723258938  0.8910378063207782  1.0000
  H   H41       1.0  0.813023250738328  0.8998848707314292  0.3283297349168645  1.0000
  H   H42       1.0  0.8141083725010034  0.09427813517130615  0.3625931172146662  1.0000
  H   H43       1.0  0.9013113260005926  0.16051967329608263  0.6438535613209464  1.0000
  H   H44       1.0  0.9052218423065421  0.34130149827063905  0.5834386840614338  1.0000
  H   H45       1.0  0.9049269329725428  0.6689163751181124  0.5838478161135264  1.0000
  H   H46       1.0  0.9102124829535014  0.8604806799377743  0.6305587991451921  1.0000
  H   H47       1.0  0.9986865392698493  0.26965149683205336  0.23669700950416045  1.0000
  H   H48       1.0  0.0007226375168238874  0.7948071524198117  0.984045752804325  1.0000
  H   H49       1.0  0.28087535293969396  0.7443279645290701  0.01822797534879386  1.0000
  H   H50       1.0  0.22856665982466604  0.7636362935150875  0.5225069279503902  1.0000
  H   H51       1.0  0.23500624602843415  0.7278881737226595  0.7802042585973181  1.0000
  H   H52       1.0  0.2687943134505768  0.7711948619626392  0.2789384415943219  1.0000
  H   H53       1.0  0.7740448901508611  0.7361398451409551  0.7245155420351216  1.0000
  H   H54       1.0  0.7236926130377108  0.7470245091653283  0.16543715358719097  1.0000
  H   H55       1.0  0.7592861871482857  0.7847332781021116  0.4320592834532206  1.0000
  H   H56       1.0  0.7238945989595429  0.7301156027840584  0.9797908747295766  1.0000
  H   H57       1.0  0.2837898025214283  0.235016476903532  0.23486504324672924  1.0000
  H   H58       1.0  0.21759898386941978  0.24752036025371563  0.6898357216171352  1.0000
  H   H59       1.0  0.28109557285737613  0.2582644189616902  0.994905809261581  1.0000
  H   H60       1.0  0.22366987974780414  0.22817284874775765  0.44590790302219546  1.0000
  H   H61       1.0  0.778068872976031  0.25587521021583354  0.5164192046781373  1.0000
  H   H62       1.0  0.7221845277543608  0.26098390929346926  0.007544698787670168  1.0000
  H   H63       1.0  0.7530741741025955  0.2874697970395686  0.7403838048503393  1.0000
  H   H64       1.0  0.7447036906776168  0.2266347972562372  0.2602425354308556  1.0000
  C   C1        1.0  0.9984435393428375  0.21443037244443872  0.8762651296950972  1.0000
  C   C2        1.0  0.003419882237191807  0.6706679489833709  0.601111674723006  1.0000
  C   C3        1.0  0.004107410754688567  0.7106486128802341  0.34165332264051657  1.0000
  C   C4        1.0  0.006075496383345015  0.8486260107651199  0.6258583411391561  1.0000
  C   C5        1.0  0.05970095143213526  0.17015236063718053  0.6861955864532617  1.0000
  C   C6        1.0  0.0535914647424053  0.1966579589640425  0.814763128712117  1.0000
  C   C7        1.0  0.05558179522981228  0.29681018207807697  0.39609558091233094  1.0000
  C   C8        1.0  0.055925624386961886  0.3156931143358841  0.5292584023185936  1.0000
  C   C9        1.0  0.058155122023758124  0.8159525086210587  0.8167872956863526  1.0000
  C   C10       1.0  0.057988756475116816  0.7015173691161719  0.4131988078877018  1.0000
  C   C11       1.0  0.06185771391655162  0.6785958254232316  0.542057057150441  1.0000
  C   C12       1.0  0.06303026250986796  0.8386674436650301  0.6848438891560341  1.0000
  C   C13       1.0  0.1185930109005958  0.7120162384606833  0.34449483888396043  1.0000
  C   C14       1.0  0.11358600449837586  0.2054783822380536  0.8825842286058945  1.0000
  C   C15       1.0  0.11819678063815309  0.2906232776530097  0.3318423432491221  1.0000
  C   C16       1.0  0.11816161216644074  0.8068681454760428  0.8930176634617865  1.0000
  C   C17       1.0  0.19164160344706438  0.942382020230298  0.3052300159324691  1.0000
  C   C18       1.0  0.17689732947469464  0.9981974644718448  0.3653308836046999  1.0000
  C   C19       1.0  0.17741215955285378  0.05565747429538108  0.30030264780792965  1.0000
  C   C20       1.0  0.16260611712385134  0.5048040728347329  0.8574618589644097  1.0000
  C   C21       1.0  0.17373961448057143  0.5622219153528099  0.9239146732648095  1.0000
  C   C22       1.0  0.16640453154410928  0.45006089916302344  0.9255652344402429  1.0000
  C   C23       1.0  0.21081363055054173  0.9416206825955974  0.17637955489369006  1.0000
  C   C24       1.0  0.20422052930907764  0.05485912235771706  0.17445435307922114  1.0000
  C   C25       1.0  0.22049198545888946  0.8838094782286191  0.10269672701118639  1.0000
  C   C26       1.0  0.19104104037746455  0.4476432143976627  0.04861162400084373  1.0000
  C   C27       1.0  0.2053174280130426  0.38554380523164483  0.11759835365290637  1.0000
  C   C28       1.0  0.20808258278251582  0.6162065719458061  0.133647462753784  1.0000
  C   C29       1.0  0.2189198443304195  0.9999138937545461  0.11304573026276069  1.0000
  C   C30       1.0  0.2093602249181672  0.11274928646908382  0.0989412139853844  1.0000
  C   C31       1.0  0.19800732295234655  0.5575739684501831  0.056604641968026524  1.0000
  C   C32       1.0  0.21091446403019184  0.5017672741808464  0.11550974950581994  1.0000
  C   C33       1.0  0.2990225397168674  0.9930910740284036  0.633842308739956  1.0000
  C   C34       1.0  0.2904639649715692  0.49520192693584764  0.5962455132299885  1.0000
  C   C35       1.0  0.2975747785086271  0.37963229023245987  0.5664480070116631  1.0000
  C   C36       1.0  0.3182624500294317  0.9364471591742967  0.5774834149239226  1.0000
  C   C37       1.0  0.3020122323158541  0.8782913028779953  0.6428183862542561  1.0000
  C   C38       1.0  0.2923335837841467  0.1071731974560671  0.6212333157880789  1.0000
  C   C39       1.0  0.29229926119634597  0.6099200144126081  0.6005582257555809  1.0000
  C   C40       1.0  0.3046353030301747  0.04594234882709581  0.5613490263228951  1.0000
  C   C41       1.0  0.30824512547266825  0.4383883175858976  0.6450567623718975  1.0000
  C   C42       1.0  0.3021989803892972  0.549777525889655  0.6633241901003353  1.0000
  C   C43       1.0  0.32225546772989844  0.04544388080761075  0.43128768272378326  1.0000
  C   C44       1.0  0.3397445563103651  0.9350124145950494  0.4534276728783026  1.0000
  C   C45       1.0  0.34297007201906576  0.9899468070848558  0.37438187378292215  1.0000
  C   C46       1.0  0.3300925507304489  0.4340682639807451  0.7698158941585579  1.0000
  C   C47       1.0  0.3374908720394705  0.4877009241351449  0.8392623929003085  1.0000
  C   C48       1.0  0.3240428363306749  0.5447022951512093  0.7888144574184266  1.0000
  C   C49       1.0  0.3886293249120334  0.6980856544455281  0.4001103463349595  1.0000
  C   C50       1.0  0.38081673290400825  0.204674869810781  0.8295994402110455  1.0000
  C   C51       1.0  0.3778131329200866  0.2865063444844225  0.361266420232766  1.0000
  C   C52       1.0  0.3837316851641621  0.7855491742399183  0.8673714736705102  1.0000
  C   C53       1.0  0.439239660535196  0.6613529064222244  0.19236363504087284  1.0000
  C   C54       1.0  0.44808434111025974  0.809487221521384  0.06144316729562928  1.0000
  C   C55       1.0  0.44547987924875554  0.7906194883978632  0.928145284444424  1.0000
  C   C56       1.0  0.4446127063077776  0.6846692297018001  0.3209700058841545  1.0000
  C   C57       1.0  0.440068974440029  0.17704361034693014  0.02813232805604546  1.0000
  C   C58       1.0  0.44171551426779926  0.1995951418390754  0.9002579652993831  1.0000
  C   C59       1.0  0.440293804292604  0.294409548157209  0.29693197083511036  1.0000
  C   C60       1.0  0.4381620328963579  0.3168610395459174  0.1677613815831756  1.0000
  C   C61       1.0  0.4970284955425339  0.6535415148575296  0.12774486793218354  1.0000
  C   C62       1.0  0.4998138080623798  0.7861754445935248  0.8615433559233253  1.0000
  C   C63       1.0  0.5063352197017587  0.8184136045943098  0.11845603424183176  1.0000
  C   C64       1.0  0.496236324917217  0.28909657992753357  0.3654400390365736  1.0000
  C   C65       1.0  0.500432109712052  0.7011759228461527  0.3751401982486709  1.0000
  C   C66       1.0  0.4961983180009354  0.16746909580161326  0.08927453210667172  1.0000
  C   C67       1.0  0.4978475748086699  0.21192221031460995  0.8343007946195402  1.0000
  C   C68       1.0  0.4949565292465094  0.3312126153668794  0.10995808266497377  1.0000
  C   C69       1.0  0.5530132657570188  0.6700789002471492  0.18248864436480874  1.0000
  C   C70       1.0  0.5568501483481354  0.6928271685877327  0.3127385584447934  1.0000
  C   C71       1.0  0.5582747133758172  0.7959304245539025  0.9258772125700044  1.0000
  C   C72       1.0  0.5635118734897853  0.8094531740236064  0.05521454197455365  1.0000
  C   C73       1.0  0.5508191938436989  0.3076578648411079  0.30235256306967423  1.0000
  C   C74       1.0  0.5551496145167928  0.1958815709088412  0.8923609788111928  1.0000
  C   C75       1.0  0.5524464351047413  0.1713779099565848  0.021857250849113795  1.0000
  C   C76       1.0  0.5519483874741034  0.3288195565125817  0.17465806732890507  1.0000
  C   C77       1.0  0.6186002857078867  0.2060802839321463  0.8277696480206167  1.0000
  C   C78       1.0  0.6190878447076625  0.7027031070217237  0.3749782355927296  1.0000
  C   C79       1.0  0.6150831001064105  0.7979397803550986  0.835275512967155  1.0000
  C   C80       1.0  0.6134788700915411  0.30313070827797095  0.3751536103309139  1.0000
  C   C81       1.0  0.6693169903088775  0.4495655106773947  0.7736550937268936  1.0000
  C   C82       1.0  0.6714994149546158  0.5052845958271488  0.8433430080087533  1.0000
  C   C83       1.0  0.6898258471981004  0.5603359487693892  0.7841878459006609  1.0000
  C   C84       1.0  0.6437129070038362  0.9997965313284565  0.3754833603185134  1.0000
  C   C85       1.0  0.6555385664737435  0.05531218403189536  0.44587085754136135  1.0000
  C   C86       1.0  0.6604391490460961  0.9438087022148266  0.4362013807108264  1.0000
  C   C87       1.0  0.697719882756163  0.449163007050914  0.6474202875263211  1.0000
  C   C88       1.0  0.7141552445593932  0.5616909884409138  0.658911118334529  1.0000
  C   C89       1.0  0.7074381630605768  0.3904278205283337  0.5806077519639047  1.0000
  C   C90       1.0  0.6889446190894905  0.944993235773481  0.5634120587465932  1.0000
  C   C91       1.0  0.7070757224579083  0.8839315699929104  0.6258835936889418  1.0000
  C   C92       1.0  0.6980988715493741  0.11915378790772567  0.6270901882634867  1.0000
  C   C93       1.0  0.7211111712042475  0.5033150716131479  0.5888926954214304  1.0000
  C   C94       1.0  0.6828033737466507  0.05691459039385917  0.565273798371405  1.0000
  C   C95       1.0  0.7189976190194155  0.6229514351546094  0.5885321495467624  1.0000
  C   C96       1.0  0.7000156953553219  0.001474688630572972  0.6299332033616913  1.0000
  C   C97       1.0  0.7999365583063014  0.5069796523843492  0.11252622429233522  1.0000
  C   C98       1.0  0.7827612727933455  0.005268955564043276  0.08283475064926575  1.0000
  C   C99       1.0  0.8168688172770104  0.4501950206272358  0.0542693641625122  1.0000
  C   C100      1.0  0.7883125212569134  0.8821779543449776  0.07309998777991526  1.0000
  C   C101      1.0  0.8046302781348316  0.38948008528584904  0.12437323149829096  1.0000
  C   C102      1.0  0.8023318282233439  0.6223028381334763  0.12433505581305808  1.0000
  C   C103      1.0  0.7895529786632394  0.12272773930700814  0.08199090512036693  1.0000
  C   C104      1.0  0.8136634643015683  0.5637035894118176  0.057741791545595014  1.0000
  C   C105      1.0  0.7929213604165666  0.9451823317500934  0.14302854343612428  1.0000
  C   C106      1.0  0.7925942102810662  0.05950415374605525  0.1522533930055172  1.0000
  C   C107      1.0  0.8457301381830522  0.5656968314162043  0.9356588153782235  1.0000
  C   C108      1.0  0.8495974853566759  0.45012687391700945  0.9396438666115559  1.0000
  C   C109      1.0  0.860718171310778  0.5084175979691015  0.8841669037873288  1.0000
  C   C110      1.0  0.8041110422631217  0.9456593427099703  0.276824711014679  1.0000
  C   C111      1.0  0.8161267609199777  6.86719158282667e-05  0.34195544810429185  1.0000
  C   C112      1.0  0.8126792012838967  0.05645763900555631  0.2810365336375629  1.0000
  C   C113      1.0  0.8815454162525274  0.209828115439885  0.8753835625029902  1.0000
  C   C114      1.0  0.88931827830514  0.7045725161292272  0.3355595243983537  1.0000
  C   C115      1.0  0.8848189120576839  0.7971544222377269  0.873067558320472  1.0000
  C   C116      1.0  0.884269802547429  0.2976657764104175  0.3300047822373838  1.0000
  C   C117      1.0  0.9467173844383306  0.16687165459083228  0.689468176236255  1.0000
  C   C118      1.0  0.9472834395568575  0.3262882366134818  0.5294908092080185  1.0000
  C   C119      1.0  0.9418244252352708  0.3016892703200594  0.4010038238441515  1.0000
  C   C120      1.0  0.9437028844214258  0.19896360382130843  0.8094683684876373  1.0000
  C   C121      1.0  0.9467773277896314  0.6753556119061961  0.5340848407649909  1.0000
  C   C122      1.0  0.9481425843187712  0.6963775427460734  0.4078412606858067  1.0000
  C   C123      1.0  0.9457503445658049  0.8143766649388753  0.8085006021097407  1.0000
  C   C124      1.0  0.9484069648975649  0.8405008878381521  0.6832754380577714  1.0000
  C   C125      1.0  0.003878764702857751  0.15357846620722326  0.6255415084662087  1.0000
  C   C126      1.0  0.9992952271378511  0.28542726711456895  0.3360372079553617  1.0000
  C   C127      1.0  0.0019873858900082758  0.32935658138813745  0.5910339700038975  1.0000
  C   C128      1.0  0.0011384732570191118  0.8050190116544117  0.8833216505961273  1.0000
  N   N1        1.0  0.012325910101588948  0.8858015299843846  0.5000967549158158  1.0000
  N   N2        1.0  0.5067242009501951  0.8366782698174646  0.2548422742637469  1.0000
  N   N3        1.0  0.9994576875436382  0.12915129968381597  0.49042363232722885  1.0000
  N   N4        1.0  0.4965040082420222  0.1609997370580526  0.2340204031792874  1.0000
  N   N5        1.0  0.0005428268601781472  0.6522982467807648  0.7384369593791006  1.0000
  N   N6        1.0  0.002497994523549112  0.34849821155747085  0.7336238107782475  1.0000
  N   N7        1.0  0.35454954494983176  0.4837320580749118  0.9797750237341502  1.0000
  N   N8        1.0  0.1432984047073835  0.5063656540665791  0.7257179863826985  1.0000
  N   N9        1.0  0.15862022954666102  0.9946623225980682  0.5011994638183963  1.0000
  N   N10       1.0  0.8347428171415211  0.9938182556092798  0.4757890870518619  1.0000
  N   N11       1.0  0.6081205549259626  0.9979942918843733  0.25311698280930733  1.0000
  N   N12       1.0  0.4923428046802767  0.6397058572508122  0.9874631018830848  1.0000
  N   N13       1.0  0.8881680505893245  0.5089014360110456  0.7556747078416369  1.0000
  N   N14       1.0  0.6382333454918956  0.5084006429533514  0.9668676985366946  1.0000
  N   N15       1.0  0.3544672660213546  0.9887428132784118  0.23557106689759166  1.0000
  N   N16       1.0  0.4917842501973321  0.3479506265016295  0.9713037731149469  1.0000
  O   O1        1.0  0.11956337084043413  0.25812292149852517  0.22886242776116825  1.0000
  O   O2        1.0  0.11932380011109277  0.7741858668739477  0.997876339549811  1.0000
  O   O3        1.0  0.12030787266367167  0.74390975859307  0.23966106706814275  1.0000
  O   O4        1.0  0.11471771789031608  0.24087837516817084  0.982609277565466  1.0000
  O   O5        1.0  0.1660464501772646  0.6834535056239468  0.3937544435063285  1.0000
  O   O6        1.0  0.1608197279979844  0.1779185867006327  0.8371338057110836  1.0000
  O   O7        1.0  0.1640171297565144  0.32097566460244437  0.3746509565326869  1.0000
  O   O8        1.0  0.16576690116943155  0.8352879176480027  0.8501949997487731  1.0000
  O   O9        1.0  0.19890422937905572  0.8351279118209989  0.15255861222193434  1.0000
  O   O10       1.0  0.18170534582866507  0.16130553933987768  0.1462964397179319  1.0000
  O   O11       1.0  0.18270408458025933  0.6641116504339056  0.09104752982833009  1.0000
  O   O12       1.0  0.18382437159767667  0.33675750680306127  0.06232839673804146  1.0000
  O   O13       1.0  0.2448406570681491  0.23908125152520754  0.9718091374634659  1.0000
  O   O14       1.0  0.23215120089429964  0.1102632582962839  0.9851874969295611  1.0000
  O   O15       1.0  0.2522808703006028  0.8859246699851165  0.997273138305659  1.0000
  O   O16       1.0  0.23886147639031546  0.3853295654905714  0.21891252539131453  1.0000
  O   O17       1.0  0.24557046972604563  0.2578918309198938  0.23052476149486695  1.0000
  O   O18       1.0  0.23902157383854156  0.6097486929899681  0.24287834086434298  1.0000
  O   O19       1.0  0.25546169223854837  0.7358336311332156  0.22569401274963383  1.0000
  O   O20       1.0  0.2641347152260716  0.7433020054760872  0.4811766986608971  1.0000
  O   O21       1.0  0.24189749589535642  0.7543622708456231  0.97340902182587  1.0000
  O   O22       1.0  0.2569574634426516  0.7610882693586608  0.7341473049635084  1.0000
  O   O23       1.0  0.26051349801860707  0.2363617514658815  0.725312659190393  1.0000
  O   O24       1.0  0.2679214214912323  0.881197339688123  0.741957710033692  1.0000
  O   O25       1.0  0.26138833455464305  0.1053840411426188  0.731193479387332  1.0000
  O   O26       1.0  0.26123493991251134  0.6120760526140385  0.49722646551163086  1.0000
  O   O27       1.0  0.2594710254882715  0.38429706758537713  0.47541057626298217  1.0000
  O   O28       1.0  0.24812221157565229  0.2623660123900842  0.47967860448419025  1.0000
  O   O29       1.0  0.309368372704935  0.15687026304590546  0.5635333505364315  1.0000
  O   O30       1.0  0.3280348924977609  0.8316517220159152  0.5906408461087012  1.0000
  O   O31       1.0  0.32384726392591373  0.3296266730367753  0.5992535924978365  1.0000
  O   O32       1.0  0.3210869027380265  0.659134423379385  0.6532090537876453  1.0000
  O   O33       1.0  0.3422139016616438  0.666905922835678  0.362432807664558  1.0000
  O   O34       1.0  0.3378515332345783  0.17641150824802637  0.8929549366325881  1.0000
  O   O35       1.0  0.33850256442805  0.32651274074400455  0.3320037665113761  1.0000
  O   O36       1.0  0.33899496920128913  0.8169428546109512  0.9095235856585298  1.0000
  O   O37       1.0  0.3701065996821914  0.24330678378134113  0.44630956117326814  1.0000
  O   O38       1.0  0.3844259324049028  0.7512261931345275  0.763799965544272  1.0000
  O   O39       1.0  0.3877665333896653  0.7327894307686283  0.49949695883684814  1.0000
  O   O40       1.0  0.3796168261898004  0.22998562320881363  0.7186081178937811  1.0000
  O   O41       1.0  0.610597575920943  0.773807170140972  0.7210608758384188  1.0000
  O   O42       1.0  0.6088289116915568  0.2703308075163648  0.48225140565809876  1.0000
  O   O43       1.0  0.6218870405586984  0.24193804550980486  0.7357252934346847  1.0000
  O   O44       1.0  0.6173486590786356  0.7352956598373664  0.478611043483213  1.0000
  O   O45       1.0  0.6635667693100592  0.18105572871700065  0.8873332689088248  1.0000
  O   O46       1.0  0.664535881588354  0.6752072931152879  0.32749475445903525  1.0000
  O   O47       1.0  0.6623815474035808  0.8237594231678331  0.8811596656243853  1.0000
  O   O48       1.0  0.6580908017613127  0.3283767071174697  0.31870488709315964  1.0000
  O   O49       1.0  0.6824632172047032  0.343188575091917  0.6349502961336383  1.0000
  O   O50       1.0  0.6874040458790369  0.6677718431972216  0.6335342159909816  1.0000
  O   O51       1.0  0.67548547441757  0.16666867603012217  0.5702334689988339  1.0000
  O   O52       1.0  0.6880247439734598  0.8374842444108185  0.557292811017741  1.0000
  O   O53       1.0  0.7472833745753698  0.7458774754750956  0.47111305698296  1.0000
  O   O54       1.0  0.7444357094594831  0.6231462481516777  0.4818529179001378  1.0000
  O   O55       1.0  0.7406409125043909  0.3890029570269434  0.476995573941696  1.0000
  O   O56       1.0  0.7402940684973149  0.8819326253215454  0.7265138957229685  1.0000
  O   O57       1.0  0.7373995342089972  0.11847406747539142  0.722812700417585  1.0000
  O   O58       1.0  0.7344797237808299  0.7553959345123553  0.7341879467256355  1.0000
  O   O59       1.0  0.7460089877292609  0.24550590407066405  0.7149672299070634  1.0000
  O   O60       1.0  0.7617644372534808  0.25404859512989586  0.9667702822725376  1.0000
  O   O61       1.0  0.7397932823909849  0.2593629262488293  0.4646493675794566  1.0000
  O   O62       1.0  0.7532797269479751  0.2647916273877007  0.21288310320365308  1.0000
  O   O63       1.0  0.7668595944820906  0.39078983335422157  0.22495399565488025  1.0000
  O   O64       1.0  0.7612919338735576  0.7453040312409481  0.21959016587471342  1.0000
  O   O65       1.0  0.7694021567272125  0.621636358354823  0.22634133077063937  1.0000
  O   O66       1.0  0.7556129546611432  0.12518509228389144  0.9838094789666308  1.0000
  O   O67       1.0  0.7565764946324302  0.8795323716526102  0.97243156479412  1.0000
  O   O68       1.0  0.7577315962892782  0.7613925737628973  0.9833896191890089  1.0000
  O   O69       1.0  0.8298777650597504  0.6675940955284936  0.07369798911370032  1.0000
  O   O70       1.0  0.8309392687466808  0.3412689858506373  0.08551300813970678  1.0000
  O   O71       1.0  0.8196231373265936  0.8408254563453877  0.12458302459841504  1.0000
  O   O72       1.0  0.8239759137479991  0.1669848615517719  0.132890655575314  1.0000
  O   O73       1.0  0.8350470914944736  0.18520642764597642  0.8273743054323216  1.0000
  O   O74       1.0  0.8448375065545478  0.6726035548486414  0.38317704098281535  1.0000
  O   O75       1.0  0.8364746019596613  0.8174838217518933  0.814633882805656  1.0000
  O   O76       1.0  0.8385502993935173  0.33050941412660706  0.3734280152249921  1.0000
  O   O77       1.0  0.889217023661563  0.7659343729403939  0.9793825595290752  1.0000
  O   O78       1.0  0.8871295383286251  0.2607334617277163  0.2333232242267114  1.0000
  O   O79       1.0  0.8853761608843717  0.24899959539373637  0.970609434710422  1.0000
  O   O80       1.0  0.8900732344287645  0.7376383017241142  0.23085693099299917  1.0000
  O   O81       1.0  0.9721617748390716  0.9242492504816995  0.4732689815367799  1.0000
  O   O82       1.0  0.05688121175440607  0.8713576370466146  0.42699247138905266  1.0000
  O   O83       1.0  0.4571075546885963  0.8451189152044261  0.3165493855171234  1.0000
  O   O84       1.0  0.5566627347444538  0.8395580424896321  0.3122317515092006  1.0000
  O   O85       1.0  0.05109179507464266  0.13245127613812882  0.43700786837621614  1.0000
  O   O86       1.0  0.9489164815537006  0.11157810668744243  0.4503776906760372  1.0000
  O   O87       1.0  0.45042585347103875  0.14521166040293632  0.2958412770239281  1.0000
  O   O88       1.0  0.545362465060653  0.17874496402414694  0.28475978684630693  1.0000
  O   O89       1.0  0.9487113735782162  0.6473529465357999  0.7890364557559248  1.0000
  O   O90       1.0  0.051145777068631035  0.6522664779256757  0.798879946228703  1.0000
  O   O91       1.0  0.947670593875298  0.3601022373159876  0.7799780867496707  1.0000
  O   O92       1.0  0.04954945785303128  0.3510702877312559  0.7998966325096148  1.0000
  O   O93       1.0  0.3580836254036716  0.5318728753758278  0.038976030019091425  1.0000
  O   O94       1.0  0.3591751664524929  0.4306258332625881  0.02530919000327147  1.0000
  O   O95       1.0  0.13056930293116073  0.5599121210985399  0.6836556446383155  1.0000
  O   O96       1.0  0.1347707676871176  0.45794549674661716  0.6615387611004229  1.0000
  O   O97       1.0  0.1443865917403594  0.04484621957681678  0.5555108337493743  1.0000
  O   O98       1.0  0.14999258108506794  0.9440111314076647  0.5566800743409404  1.0000
  O   O99       1.0  0.8469338439619926  0.039763184724972714  0.5432048199779002  1.0000
  O   O100      1.0  0.8375754145867796  0.9392919735739945  0.5163289367565124  1.0000
  O   O101      1.0  0.5738293511873543  0.04216963621039904  0.23195280531189777  1.0000
  O   O102      1.0  0.6110050154178805  0.9524728518824098  0.17840877528828034  1.0000
  O   O103      1.0  0.4391037380848861  0.6319336425566775  0.9437925665911686  1.0000
  O   O104      1.0  0.5382706360264464  0.6414458699582128  0.9150085461865347  1.0000
  O   O105      1.0  0.8596766943684089  0.5371644655778871  0.6705369624870957  1.0000
  O   O106      1.0  0.9378969826896842  0.4799001713763863  0.735117518985781  1.0000
  O   O107      1.0  0.6357532938257606  0.5622810693839072  0.019080930422160088  1.0000
  O   O108      1.0  0.6053047146974158  0.4624059043211135  0.9967652056102874  1.0000
  O   O109      1.0  0.3363539957592548  0.03499474323486661  0.1698160243007444  1.0000
  O   O110      1.0  0.39033028408225606  0.9486372814605111  0.1963624408132317  1.0000
  O   O111      1.0  0.4395670175525416  0.34571868339447154  0.9226374404302745  1.0000
  O   O112      1.0  0.5424244390111487  0.3611742855445503  0.9200171929846656  1.0000
