data_image0
_chemical_formula_structural       Al16H64C128N16O112
_chemical_formula_sum              "Al16 H64 C128 N16 O112"
_cell_length_a       21.62769
_cell_length_b       21.646490000000004
_cell_length_c       10.3079
_cell_angle_alpha    89.86891
_cell_angle_beta     90.04471
_cell_angle_gamma    90.32585

_space_group_name_H-M_alt    "P 1"
_space_group_IT_number       1

loop_
  _space_group_symop_operation_xyz
  'x, y, z'

loop_
  _atom_site_type_symbol
  _atom_site_label
  _atom_site_symmetry_multiplicity
  _atom_site_fract_x
  _atom_site_fract_y
  _atom_site_fract_z
  _atom_site_occupancy
  Al  Al1       1.0  0.1787746819187561  0.2544701137686737  0.09378713947017292  1.0000
  Al  Al2       1.0  0.1831130221656035  0.7515638171490951  0.11667571492996087  1.0000
  Al  Al3       1.0  0.24769324692825265  0.17772557414061826  0.8389001337715905  1.0000
  Al  Al4       1.0  0.2555355286662559  0.6789449137696497  0.3675205173535792  1.0000
  Al  Al5       1.0  0.2587083889311695  0.8188920933169161  0.8760868513502473  1.0000
  Al  Al6       1.0  0.24044528215650365  0.32567760422308  0.3484313388646394  1.0000
  Al  Al7       1.0  0.3254842349910145  0.7469555956013908  0.6200064231305848  1.0000
  Al  Al8       1.0  0.31206458937884485  0.2524407624398448  0.5813125028008862  1.0000
  Al  Al9       1.0  0.6852074031675955  0.7526523663391385  0.6053400187028951  1.0000
  Al  Al10      1.0  0.6761305005538304  0.2543693328014125  0.59839151914881  1.0000
  Al  Al11      1.0  0.7499163830687433  0.6873956314350892  0.3555849224955424  1.0000
  Al  Al12      1.0  0.7519302356720323  0.18794433186279907  0.8428455841950018  1.0000
  Al  Al13      1.0  0.748435994515586  0.3199039003411577  0.3434421791186615  1.0000
  Al  Al14      1.0  0.7545100635038511  0.8202948101230502  0.8639003016389227  1.0000
  Al  Al15      1.0  0.8235529256967132  0.25029644373369003  0.09889431001776883  1.0000
  Al  Al16      1.0  0.8209864715363195  0.7469614594506906  0.09279488500692537  1.0000
  H   H1        1.0  0.9972023155389483  0.20999029915827835  0.9666319311081819  1.0000
  H   H2        1.0  0.011953564072906094  0.7255959877371864  0.24235437616480443  1.0000
  H   H3        1.0  0.09032671729231898  0.14953528567976682  0.6125760577781499  1.0000
  H   H4        1.0  0.08557317087012375  0.33032594073998006  0.5851811070862408  1.0000
  H   H5        1.0  0.10142744080960525  0.6723558013326055  0.6014422745467027  1.0000
  H   H6        1.0  0.114631588950694  0.8441792656473626  0.6720389653277705  1.0000
  H   H7        1.0  0.1654337817034104  0.9027744429057223  0.3278898768272457  1.0000
  H   H8        1.0  0.17840267539680615  0.1047526551305024  0.35209568562609256  1.0000
  H   H9        1.0  0.17209403969749895  0.6064707600153867  0.890868369763817  1.0000
  H   H10       1.0  0.1729413160462501  0.40598456247735  0.8583310559966124  1.0000
  H   H11       1.0  0.23866688211133583  0.008770352483109312  0.01962222015448245  1.0000
  H   H12       1.0  0.24094422438036367  0.4957907127229049  0.2127817195034863  1.0000
  H   H13       1.0  0.26805431611413727  0.0015753076338121245  0.7197795529251326  1.0000
  H   H14       1.0  0.26071524796775986  0.5043726088265816  0.5100558580225948  1.0000
  H   H15       1.0  0.3451527625494063  0.08883006463571201  0.3674734930895298  1.0000
  H   H16       1.0  0.35501738329183097  0.896207957150184  0.4102979146826895  1.0000
  H   H17       1.0  0.3379296754337057  0.39085086969346183  0.8108006844771578  1.0000
  H   H18       1.0  0.33754743655597824  0.5922343010688614  0.847141147687841  1.0000
  H   H19       1.0  0.396321136360222  0.6743216250495445  0.15197430236856127  1.0000
  H   H20       1.0  0.4034423378009775  0.8426395098367322  0.0950257940144746  1.0000
  H   H21       1.0  0.40294598931481557  0.1650591945115215  0.06942248020054465  1.0000
  H   H22       1.0  0.3994204205952092  0.31637593503446654  0.0977380963658309  1.0000
  H   H23       1.0  0.49837116621731237  0.7733131080247441  0.7608753865535118  1.0000
  H   H24       1.0  0.5015164295891502  0.27309603608569694  0.45734063550351106  1.0000
  H   H25       1.0  0.5092285998908103  0.7103381783597777  0.48287155802796733  1.0000
  H   H26       1.0  0.5004270778726599  0.23017832706764663  0.7212287204078964  1.0000
  H   H27       1.0  0.5950961159303685  0.6621018875413908  0.11245912119528881  1.0000
  H   H28       1.0  0.6079117729524591  0.8277320559091522  0.08937651146821261  1.0000
  H   H29       1.0  0.6037948172387005  0.16948641642585754  0.04581975234941585  1.0000
  H   H30       1.0  0.5985716639558605  0.33948593485759415  0.11893476748223847  1.0000
  H   H31       1.0  0.6552559523471554  0.40682293413411386  0.8015740527743053  1.0000
  H   H32       1.0  0.6772665743917203  0.6028701160690287  0.8361218061404297  1.0000
  H   H33       1.0  0.6497821077712118  0.09447966436421007  0.39219517471247306  1.0000
  H   H34       1.0  0.6480595505254108  0.8929730712197113  0.4157350923030057  1.0000
  H   H35       1.0  0.7471694545589758  0.5024105132070499  0.49140080996081004  1.0000
  H   H36       1.0  0.7395327565829601  0.9989988542462162  0.7068316189500561  1.0000
  H   H37       1.0  0.77155376226868  0.49287631346106936  0.21753919316850992  1.0000
  H   H38       1.0  0.7570572243439245  0.0019230321669354226  0.9960715602864325  1.0000
  H   H39       1.0  0.8424536482834238  0.6013464999555502  0.8925307597652025  1.0000
  H   H40       1.0  0.8693322860011435  0.40442833584324256  0.9341125279277671  1.0000
  H   H41       1.0  0.8209022298497303  0.900230992026092  0.3291301233590309  1.0000
  H   H42       1.0  0.8288150615537503  0.10232511089096004  0.32325124342715417  1.0000
  H   H43       1.0  0.8974412942570351  0.15265833905066797  0.628485234962736  1.0000
  H   H44       1.0  0.8924067903945062  0.30416337850714886  0.6009476883706046  1.0000
  H   H45       1.0  0.8987808162291884  0.6848184055619893  0.5876188027532001  1.0000
  H   H46       1.0  0.9121378087190599  0.8440680139744992  0.6417852193619054  1.0000
  H   H47       1.0  0.9926502617635732  0.26712931128120354  0.24642746983573532  1.0000
  H   H48       1.0  0.9981141711637246  0.7737135822665243  0.9789758372861899  1.0000
  H   H49       1.0  0.2871872740081552  0.7604427319849965  0.05424068316436157  1.0000
  H   H50       1.0  0.2205836446074395  0.7444854222726502  0.5337411926587502  1.0000
  H   H51       1.0  0.2571409872981255  0.7150819492150858  0.8044146124670734  1.0000
  H   H52       1.0  0.25760104419812196  0.7827417839630552  0.2662605634119388  1.0000
  H   H53       1.0  0.7865709115872775  0.7471800512614868  0.6790248683415937  1.0000
  H   H54       1.0  0.7191595884822863  0.7318941868314899  0.16146854513012887  1.0000
  H   H55       1.0  0.7585262574203597  0.7915530641618854  0.44062592041328336  1.0000
  H   H56       1.0  0.7413867454712441  0.7228058713647373  0.9262859517184219  1.0000
  H   H57       1.0  0.24836695109452595  0.22729496443493827  0.2660520945427198  1.0000
  H   H58       1.0  0.24237934304510964  0.2762252393294967  0.7566009874719719  1.0000
  H   H59       1.0  0.2761535026636767  0.26437903223657944  0.9681393618403685  1.0000
  H   H60       1.0  0.21098818233313768  0.25056261431827004  0.5068143086000679  1.0000
  H   H61       1.0  0.7712253691678509  0.23960058698107933  0.4810769088884789  1.0000
  H   H62       1.0  0.7310721678276988  0.26281053633319057  0.010887102218001932  1.0000
  H   H63       1.0  0.7605967062740846  0.2843423531336814  0.7266526731815481  1.0000
  H   H64       1.0  0.7338562337434178  0.22960951165260401  0.2421745892638685  1.0000
  C   C1        1.0  0.9971430261154579  0.19228753075940547  0.8724641261847776  1.0000
  C   C2        1.0  0.9978624024432066  0.6824973344019863  0.6074369397961711  1.0000
  C   C3        1.0  0.004896294096244258  0.7105348690494628  0.3479946046017708  1.0000
  C   C4        1.0  0.014282153474069616  0.8435925643165499  0.6386677789940871  1.0000
  C   C5        1.0  0.0513720434510849  0.1610578996082576  0.6732804613902559  1.0000
  C   C6        1.0  0.052914724012315346  0.18031859282976603  0.8024453093978714  1.0000
  C   C7        1.0  0.04749750315983329  0.290976664327311  0.41338129951813457  1.0000
  C   C8        1.0  0.043850188173115534  0.31767684565801657  0.5358821703806628  1.0000
  C   C9        1.0  0.06296781322522532  0.8062552313608057  0.8325512168673161  1.0000
  C   C10       1.0  0.06061975770698756  0.7001585002807686  0.419628034303169  1.0000
  C   C11       1.0  0.057160154655177764  0.6849820673394719  0.5536224795087031  1.0000
  C   C12       1.0  0.0687889670781052  0.833167947742239  0.7063378777593926  1.0000
  C   C13       1.0  0.12089732563556932  0.7001287267160089  0.3536352616996984  1.0000
  C   C14       1.0  0.11445808126628718  0.19509386277653604  0.8677023490118458  1.0000
  C   C15       1.0  0.10797525205845526  0.2868326904526976  0.3432555547236461  1.0000
  C   C16       1.0  0.12099686051422831  0.7981473144054964  0.9049452954720076  1.0000
  C   C17       1.0  0.1807392901758949  0.9463812185540491  0.29387094658437557  1.0000
  C   C18       1.0  0.17206937964509197  0.0014655568299093808  0.35893141503449294  1.0000
  C   C19       1.0  0.1839564691553295  0.058938317133405756  0.3017108378627107  1.0000
  C   C20       1.0  0.17180516957571726  0.5079400712817711  0.8637965090996812  1.0000
  C   C21       1.0  0.17911962908530552  0.5600173973020676  0.9446948509634783  1.0000
  C   C22       1.0  0.18018214548220463  0.44781125875699507  0.9162172275161542  1.0000
  C   C23       1.0  0.20840370906374375  0.9498273169690002  0.1754790739977558  1.0000
  C   C24       1.0  0.20681456786014907  0.06459657950653654  0.1710242389966165  1.0000
  C   C25       1.0  0.2169346337091164  0.8896041792331818  0.10160580230846165  1.0000
  C   C26       1.0  0.2022236732833921  0.44524132260068267  0.04501820459887473  1.0000
  C   C27       1.0  0.20253146596168922  0.38593822593649313  0.11430266986500927  1.0000
  C   C28       1.0  0.21396086744058823  0.6178170035531738  0.13548793222285063  1.0000
  C   C29       1.0  0.2174555342221897  0.006892489830516666  0.11212523262231143  1.0000
  C   C30       1.0  0.21257598038681114  0.12358886877687297  0.09380940886242524  1.0000
  C   C31       1.0  0.20281788176258428  0.5564643992754612  0.07068405509602703  1.0000
  C   C32       1.0  0.22035977165559525  0.4987754476338957  0.11748123925374715  1.0000
  C   C33       1.0  0.28999314777020396  0.9988895849349116  0.6198954913860465  1.0000
  C   C34       1.0  0.28216295537182606  0.49966055259460773  0.6036293461755673  1.0000
  C   C35       1.0  0.28323311744565266  0.38197708522504453  0.5802330033489808  1.0000
  C   C36       1.0  0.3093795414551439  0.9418651322054276  0.5734380418199365  1.0000
  C   C37       1.0  0.2973828827928181  0.8835187751739508  0.6494595284198255  1.0000
  C   C38       1.0  0.2902889771234852  0.11533680628004268  0.6129894516224519  1.0000
  C   C39       1.0  0.2900757664844394  0.6171047875630967  0.6032591077067806  1.0000
  C   C40       1.0  0.30723397332968577  0.054963205113571355  0.5552238724271933  1.0000
  C   C41       1.0  0.2980061520371082  0.44199638601433644  0.6519219081389072  1.0000
  C   C42       1.0  0.2987300738078256  0.5568750149183866  0.676519508840985  1.0000
  C   C43       1.0  0.33112849385878823  0.04987343719400369  0.42849195964620673  1.0000
  C   C44       1.0  0.33524854394812525  0.9371827403658501  0.4490350854608914  1.0000
  C   C45       1.0  0.344743126285798  0.991240257788333  0.3806173802540412  1.0000
  C   C46       1.0  0.32634754572004404  0.4360973526348183  0.775596742198163  1.0000
  C   C47       1.0  0.3342570043292078  0.4907567782321276  0.847207411620248  1.0000
  C   C48       1.0  0.3251159237480308  0.5507661603385786  0.7951974036614956  1.0000
  C   C49       1.0  0.3867370502283748  0.7024602263404007  0.39413822308498475  1.0000
  C   C50       1.0  0.3805766873209446  0.21002477770279715  0.8172046961780082  1.0000
  C   C51       1.0  0.3807149767848443  0.2961044565202774  0.3616395836511341  1.0000
  C   C52       1.0  0.38975914821310925  0.79404409674845  0.8470154864210826  1.0000
  C   C53       1.0  0.44211576939517416  0.681541622634114  0.19573187892130403  1.0000
  C   C54       1.0  0.44806661271891446  0.829250595558266  0.04695844540784139  1.0000
  C   C55       1.0  0.448267687168447  0.8021892613435849  0.9227514106299003  1.0000
  C   C56       1.0  0.4463975035179062  0.6973676523065716  0.31954839695620274  1.0000
  C   C57       1.0  0.44643423780572006  0.17621068734849235  0.00837022295767557  1.0000
  C   C58       1.0  0.443759391953385  0.2005962375083321  0.8788201134149389  1.0000
  C   C59       1.0  0.4404414269510899  0.3024506148139239  0.29559441904031925  1.0000
  C   C60       1.0  0.4405084306240796  0.3147788600673258  0.16107187346026627  1.0000
  C   C61       1.0  0.4962880278694064  0.6673011012512161  0.12518173509908034  1.0000
  C   C62       1.0  0.5028972158366507  0.7891917207785765  0.8581686267069235  1.0000
  C   C63       1.0  0.505434836589783  0.8380557417934665  0.1100957027554437  1.0000
  C   C64       1.0  0.4978818606414241  0.2941231250570042  0.3655428798758022  1.0000
  C   C65       1.0  0.5057577942450187  0.7034446812895815  0.3756294904115465  1.0000
  C   C66       1.0  0.5044495252032454  0.1697725675137254  0.06931832871226652  1.0000
  C   C67       1.0  0.49965444998911784  0.21391097422740182  0.8193805356124271  1.0000
  C   C68       1.0  0.49765821409527905  0.3313469835891647  0.10066511815030443  1.0000
  C   C69       1.0  0.5551628906554985  0.6726163222094116  0.17501917297004357  1.0000
  C   C70       1.0  0.5596051133159312  0.6955772456608252  0.30224162162381063  1.0000
  C   C71       1.0  0.5601266042943873  0.7982761186689789  0.9132688540848029  1.0000
  C   C72       1.0  0.5608187746640688  0.8197848980229255  0.04552902497274888  1.0000
  C   C73       1.0  0.5538247547950197  0.31059473008974553  0.2998504535130448  1.0000
  C   C74       1.0  0.5562039579182153  0.20443828423768803  0.8838942839343555  1.0000
  C   C75       1.0  0.5585531696757694  0.18223627233559855  0.007945565874687139  1.0000
  C   C76       1.0  0.5537294927421678  0.33153449554724534  0.16790446740032597  1.0000
  C   C77       1.0  0.614037936774823  0.2168127359684128  0.822141502721943  1.0000
  C   C78       1.0  0.6200093818355636  0.7066991489699134  0.3648946606016752  1.0000
  C   C79       1.0  0.6200158011028692  0.7904709461198285  0.8445012550584765  1.0000
  C   C80       1.0  0.6120757502633465  0.30080533762272754  0.3714099125492087  1.0000
  C   C81       1.0  0.6799185298143713  0.44769976994184363  0.7684179525838358  1.0000
  C   C82       1.0  0.6767644776002044  0.5008033311974582  0.8329639384097739  1.0000
  C   C83       1.0  0.6883504873762828  0.5587665152534927  0.7742423721858119  1.0000
  C   C84       1.0  0.6482305731310218  0.9959721450895388  0.386399886250142  1.0000
  C   C85       1.0  0.6573967209146748  0.0525209348806381  0.4477379920731788  1.0000
  C   C86       1.0  0.6578074193418489  0.9392470629459868  0.45199552346039995  1.0000
  C   C87       1.0  0.7141675712602641  0.4477683894503527  0.6487125370423056  1.0000
  C   C88       1.0  0.7102544465261282  0.5606938583251643  0.6468211036009804  1.0000
  C   C89       1.0  0.7151032668266992  0.38805756233393357  0.5753143421639082  1.0000
  C   C90       1.0  0.6927911505280341  0.9441946550159633  0.5699774810979745  1.0000
  C   C91       1.0  0.7063513419459827  0.8838117941896352  0.6328229963102824  1.0000
  C   C92       1.0  0.7037849268096888  0.12077950994897484  0.6220394706980104  1.0000
  C   C93       1.0  0.728919112994079  0.503986073713054  0.5873821825781924  1.0000
  C   C94       1.0  0.687792385938851  0.0569100489770967  0.5669121349068135  1.0000
  C   C95       1.0  0.7084225191440036  0.620801292015483  0.581801895857545  1.0000
  C   C96       1.0  0.7088349917100941  0.0004971539766064766  0.6185923366102795  1.0000
  C   C97       1.0  0.7945921470294798  0.4979425757708022  0.1279186031463902  1.0000
  C   C98       1.0  0.7789991919776496  0.0015835894504390158  0.09031695600363464  1.0000
  C   C99       1.0  0.8129767619524626  0.44255322181698986  0.07006539576012388  1.0000
  C   C100      1.0  0.7931612305593383  0.8846483555017278  0.08456120044194751  1.0000
  C   C101      1.0  0.8015440362971696  0.37964515207516003  0.13040165153904776  1.0000
  C   C102      1.0  0.8003401712449195  0.6156590464130826  0.13914712370003335  1.0000
  C   C103      1.0  0.7872318489638079  0.11916255456470407  0.07388922551876875  1.0000
  C   C104      1.0  0.808559408708249  0.5561925614472304  0.07039685318097823  1.0000
  C   C105      1.0  0.7949043391194979  0.94687359949251  0.15420048295015373  1.0000
  C   C106      1.0  0.792051187174243  0.06039285788716254  0.15051904148336934  1.0000
  C   C107      1.0  0.8302789636050076  0.5554307852407039  0.9422106975898676  1.0000
  C   C108      1.0  0.8431409307272922  0.4445980256427444  0.9541104654535294  1.0000
  C   C109      1.0  0.8461230352257135  0.5000461786484568  0.8849819092163419  1.0000
  C   C110      1.0  0.8155292244065697  0.9453859289149182  0.28505516212793053  1.0000
  C   C111      1.0  0.8256120899386329  0.002474756123996169  0.3458046380974333  1.0000
  C   C112      1.0  0.8154284965318216  0.05833671229417873  0.2762115494198298  1.0000
  C   C113      1.0  0.8846116736033901  0.20320511465178098  0.8735729983393286  1.0000
  C   C114      1.0  0.884996570124526  0.7154363063241209  0.33244579575759964  1.0000
  C   C115      1.0  0.8877259500391239  0.7948867449019935  0.8768222826285261  1.0000
  C   C116      1.0  0.8794987003703072  0.2785831264098249  0.34500364914323006  1.0000
  C   C117      1.0  0.9403112940619638  0.16287285633258802  0.6819629147121511  1.0000
  C   C118      1.0  0.936325603771815  0.30125509957131413  0.5489336621229083  1.0000
  C   C119      1.0  0.9378197732889456  0.28185194638423505  0.41874064534574246  1.0000
  C   C120      1.0  0.9422377937774263  0.1875593206192571  0.806088390854242  1.0000
  C   C121      1.0  0.9452602803118519  0.6929370356590134  0.5428636631719994  1.0000
  C   C122      1.0  0.9461357025851798  0.7029695770928995  0.40699252956948107  1.0000
  C   C123      1.0  0.949428218570696  0.8095354862336444  0.8196831597243235  1.0000
  C   C124      1.0  0.9555875848174575  0.8309584420094818  0.694287468686428  1.0000
  C   C125      1.0  0.9962741714641481  0.14711016959022302  0.6156222137777125  1.0000
  C   C126      1.0  0.993877739546656  0.27447916222695046  0.34845427958860326  1.0000
  C   C127      1.0  0.9900850887950442  0.31967223851314236  0.6076199659696284  1.0000
  C   C128      1.0  0.003149158980626956  0.7955694570084331  0.8882332521267706  1.0000
  N   N1        1.0  0.021162237274932612  0.8669733864538256  0.5090339747417137  1.0000
  N   N2        1.0  0.502514021152871  0.8516452574923451  0.2510574418925888  1.0000
  N   N3        1.0  0.995196696344796  0.1301171627006864  0.4728891959937542  1.0000
  N   N4        1.0  0.508762827596216  0.14834916311368304  0.20941459806639368  1.0000
  N   N5        1.0  0.99898218391421  0.6650799247096737  0.7494597458671299  1.0000
  N   N6        1.0  0.993534094371065  0.3379942853277565  0.7463538413452395  1.0000
  N   N7        1.0  0.3515499218565686  0.48665089105961407  0.9868694467430393  1.0000
  N   N8        1.0  0.15137157370964932  0.5146636826855872  0.7305798443678077  1.0000
  N   N9        1.0  0.14934163999067154  0.0020184543295310785  0.4964771409653735  1.0000
  N   N10       1.0  0.8441007381789556  0.005239832714542425  0.4829782871583807  1.0000
  N   N11       1.0  0.6267734129868437  0.9943815055046119  0.2506788399112512  1.0000
  N   N12       1.0  0.48977893805873907  0.6401043802742112  0.9949518604827016  1.0000
  N   N13       1.0  0.8727023771034691  0.5027070993811165  0.7511879283165124  1.0000
  N   N14       1.0  0.6504760809432131  0.4990438303851149  0.96885057861067  1.0000
  N   N15       1.0  0.3633897818550062  0.9880400701823042  0.23535208179173506  1.0000
  N   N16       1.0  0.4933764168213725  0.34757167161749797  0.9611961378669877  1.0000
  O   O1        1.0  0.10744106938508684  0.26485917984908697  0.23127629697316274  1.0000
  O   O2        1.0  0.11888922512661666  0.7704238672297133  0.011969819599513043  1.0000
  O   O3        1.0  0.12120246383248509  0.7292622838827465  0.24224904208497083  1.0000
  O   O4        1.0  0.11475812771662597  0.22346687461280879  0.9781717798027907  1.0000
  O   O5        1.0  0.16678880985753008  0.6737097339380458  0.4088116464215372  1.0000
  O   O6        1.0  0.16197639238502  0.1734187325311343  0.8127616240338089  1.0000
  O   O7        1.0  0.15387937386489836  0.3106442322842716  0.40490253522247743  1.0000
  O   O8        1.0  0.16856026307913174  0.8154666167575579  0.8455754721387501  1.0000
  O   O9        1.0  0.1879506182253477  0.8438031553165993  0.15229586540773052  1.0000
  O   O10       1.0  0.18495511306868856  0.1685190207590332  0.1533347425001596  1.0000
  O   O11       1.0  0.191452073262629  0.6654854576031339  0.07811718241577807  1.0000
  O   O12       1.0  0.17152596262969835  0.3425802542328047  0.06223596639100457  1.0000
  O   O13       1.0  0.23364029876726014  0.24920277774630406  0.9527828138612187  1.0000
  O   O14       1.0  0.23866985411261094  0.12007093378122498  0.988681502970534  1.0000
  O   O15       1.0  0.24364729192611848  0.8895392132028767  0.9929666666426396  1.0000
  O   O16       1.0  0.2292165897040556  0.3859447712073411  0.22808686015981106  1.0000
  O   O17       1.0  0.241749566741681  0.264430130006208  0.21309097059070284  1.0000
  O   O18       1.0  0.23707787483020415  0.6148519917188662  0.2474623684146542  1.0000
  O   O19       1.0  0.24216121545652225  0.7408466483684114  0.24889961975953803  1.0000
  O   O20       1.0  0.26319926248603714  0.741465419604315  0.49820425529883905  1.0000
  O   O21       1.0  0.2498230996348629  0.7666964759486898  0.005229539590586585  1.0000
  O   O22       1.0  0.2651167130839265  0.7525830460139579  0.7551338880595024  1.0000
  O   O23       1.0  0.2534193593576551  0.23858446544619746  0.7098007803812847  1.0000
  O   O24       1.0  0.2637442150864892  0.8829707787406001  0.7511082173770912  1.0000
  O   O25       1.0  0.259632400194594  0.11632540405814212  0.7179215424897705  1.0000
  O   O26       1.0  0.2593989970601625  0.6158890259404618  0.4954581273365195  1.0000
  O   O27       1.0  0.24508238350140768  0.38139012733453215  0.4848098391692211  1.0000
  O   O28       1.0  0.2507983026975981  0.256989109311476  0.4617364330894678  1.0000
  O   O29       1.0  0.31463084345918674  0.16200741654779918  0.5565676175480632  1.0000
  O   O30       1.0  0.3220012903042273  0.8359492241492413  0.6012781601368073  1.0000
  O   O31       1.0  0.31794293299621246  0.33718733344606017  0.6206476787934032  1.0000
  O   O32       1.0  0.31469169108793066  0.6627413665021585  0.655536058302934  1.0000
  O   O33       1.0  0.3401946632415897  0.6754505877943316  0.34803078472438714  1.0000
  O   O34       1.0  0.33430895574446345  0.19287036206696406  0.8837779679542695  1.0000
  O   O35       1.0  0.33408515258882254  0.32521308042055264  0.31532007140883156  1.0000
  O   O36       1.0  0.3428228891614566  0.8168099909473105  0.8986208734440121  1.0000
  O   O37       1.0  0.3777817446721918  0.26205064214468476  0.4634634688421984  1.0000
  O   O38       1.0  0.39097442643032626  0.7586646692541984  0.7491480723589832  1.0000
  O   O39       1.0  0.3888750135495471  0.7364710340585499  0.49441551717411064  1.0000
  O   O40       1.0  0.37884648794543324  0.23440114815165106  0.7099198001207351  1.0000
  O   O41       1.0  0.6195422347568164  0.7629682222116219  0.731578650136038  1.0000
  O   O42       1.0  0.6140613192325753  0.26645218290405515  0.472430137041079  1.0000
  O   O43       1.0  0.6136848975443526  0.25401463437412974  0.7244828000621956  1.0000
  O   O44       1.0  0.6189563814749003  0.738062995410651  0.4688163613482091  1.0000
  O   O45       1.0  0.6607123178434766  0.19313895530676983  0.8792221799918073  1.0000
  O   O46       1.0  0.6669217654640471  0.6828793363343675  0.3118799271259875  1.0000
  O   O47       1.0  0.6667185593821884  0.8104704519248441  0.9007585886102224  1.0000
  O   O48       1.0  0.6606045284678622  0.32832258434258055  0.31636698895967874  1.0000
  O   O49       1.0  0.6860244179349884  0.34365415355055645  0.6256236369758974  1.0000
  O   O50       1.0  0.6767470433884712  0.6648069892194737  0.6288977498669647  1.0000
  O   O51       1.0  0.6735094704224517  0.1649770537194983  0.5790115308219381  1.0000
  O   O52       1.0  0.6799311853374651  0.838060479602163  0.5872127091561951  1.0000
  O   O53       1.0  0.7435983841026805  0.7511434850716295  0.4696596723340833  1.0000
  O   O54       1.0  0.7382656525478624  0.6235764781690074  0.47287535802333003  1.0000
  O   O55       1.0  0.7483632592145122  0.3848067363592391  0.4745404479035497  1.0000
  O   O56       1.0  0.7387979917654592  0.886966249035529  0.735934453038266  1.0000
  O   O57       1.0  0.7418429193874698  0.12064746338112653  0.723314773106426  1.0000
  O   O58       1.0  0.745770543788289  0.7580623921367622  0.7219418949056459  1.0000
  O   O59       1.0  0.7414244463266941  0.24371912844542168  0.7080180143951703  1.0000
  O   O60       1.0  0.7663336110390337  0.2572000091082376  0.9542156691295611  1.0000
  O   O61       1.0  0.7315055231056143  0.2560623778988096  0.45947877267737236  1.0000
  O   O62       1.0  0.7522358315512946  0.26578762114418103  0.2059995055159012  1.0000
  O   O63       1.0  0.761223845317752  0.3798959687578172  0.21842801210128732  1.0000
  O   O64       1.0  0.7543101694807355  0.7446552350405198  0.21800567654544592  1.0000
  O   O65       1.0  0.7657604927781854  0.6194187108436207  0.23992193473563375  1.0000
  O   O66       1.0  0.7511103195150144  0.11459469710432352  0.9790911026127447  1.0000
  O   O67       1.0  0.7646261807289205  0.8830625652016274  0.9779236693780843  1.0000
  O   O68       1.0  0.7581567751222086  0.7577163365504567  0.9766642879522548  1.0000
  O   O69       1.0  0.8247611152759388  0.6592248325823399  0.07703025659934669  1.0000
  O   O70       1.0  0.8361725591135897  0.33599328630974024  0.09093263994306477  1.0000
  O   O71       1.0  0.8193629220193305  0.8393363729355825  0.13802341239828617  1.0000
  O   O72       1.0  0.8180206785525626  0.1648938460833941  0.11473423914228209  1.0000
  O   O73       1.0  0.8354671237632766  0.18115921638737745  0.8222304667854461  1.0000
  O   O74       1.0  0.8369288850984059  0.6936850280011806  0.38672704307348577  1.0000
  O   O75       1.0  0.8412126479208981  0.8184735668588694  0.8130929630984944  1.0000
  O   O76       1.0  0.834199093392384  0.30966552683647836  0.38564501836660164  1.0000
  O   O77       1.0  0.8855251503765859  0.761691306168843  0.9799814524146563  1.0000
  O   O78       1.0  0.8806963868752895  0.2481098879426489  0.24241189920310582  1.0000
  O   O79       1.0  0.8898701867943765  0.23379976499933164  0.9768496424437869  1.0000
  O   O80       1.0  0.8881085075760031  0.7414516364518151  0.22478022454576993  1.0000
  O   O81       1.0  0.9866582500143768  0.908548911953073  0.46975708334153504  1.0000
  O   O82       1.0  0.06422125494530388  0.8453634095953333  0.446002736387512  1.0000
  O   O83       1.0  0.45049245354879786  0.8524622786729327  0.29753919327860395  1.0000
  O   O84       1.0  0.5533096456896418  0.8542518713586842  0.3081896283491938  1.0000
  O   O85       1.0  0.04287696051359425  0.1345354592208204  0.41422321933395906  1.0000
  O   O86       1.0  0.9453956130883103  0.11235286913660636  0.42835656503976327  1.0000
  O   O87       1.0  0.4645576086805587  0.12333803230262574  0.2661285788213423  1.0000
  O   O88       1.0  0.5587025506916651  0.16107118833733441  0.2654736636924854  1.0000
  O   O89       1.0  0.9488364922276514  0.6702552917632629  0.8119532989374053  1.0000
  O   O90       1.0  0.04912061417118996  0.6506990540076071  0.7988220613309673  1.0000
  O   O91       1.0  0.9447004706877029  0.33663557338905414  0.8068391279134647  1.0000
  O   O92       1.0  0.04072040230047036  0.3575309915014388  0.7890383853495294  1.0000
  O   O93       1.0  0.3660918728435635  0.5357396050385923  0.03960812472041833  1.0000
  O   O94       1.0  0.35350794521093576  0.4353158881044006  0.03404660909411605  1.0000
  O   O95       1.0  0.1570019688948869  0.5651921654206439  0.6769433384009244  1.0000
  O   O96       1.0  0.14218016524964355  0.4643482590439317  0.6739116878229674  1.0000
  O   O97       1.0  0.14215876794160515  0.05272549455664104  0.5493592854578978  1.0000
  O   O98       1.0  0.15211386708620098  0.9518213873799843  0.5604736854413728  1.0000
  O   O99       1.0  0.8366472291152637  0.052235942095409674  0.5474352575037915  1.0000
  O   O100      1.0  0.8623041897615652  0.956985356261358  0.5279924356331427  1.0000
  O   O101      1.0  0.6250561216836499  0.042508551400441255  0.18304820613731243  1.0000
  O   O102      1.0  0.618111223814902  0.9414682612879085  0.201778390963634  1.0000
  O   O103      1.0  0.4388659491887668  0.6484824529346737  0.940574225649184  1.0000
  O   O104      1.0  0.5333985955870526  0.6113151685044793  0.951654743754009  1.0000
  O   O105      1.0  0.8498282840521577  0.5437042985379315  0.6816289824832098  1.0000
  O   O106      1.0  0.910396834390545  0.46246674347335004  0.7171818688219329  1.0000
  O   O107      1.0  0.6621752198010001  0.5388981601461155  0.049515858339540954  1.0000
  O   O108      1.0  0.6226655816579806  0.45266353664580683  0.9980861856011816  1.0000
  O   O109      1.0  0.3649139276314359  0.037173246401815775  0.1749163961595621  1.0000
  O   O110      1.0  0.3714817587134839  0.9355578689506878  0.18601192900557148  1.0000
  O   O111      1.0  0.4408878085753539  0.3447728777008325  0.9114401882182426  1.0000
  O   O112      1.0  0.5427384784984319  0.36843271747236533  0.9166294280974429  1.0000
