data_image0
_chemical_formula_structural       Al16H64C128N16O112
_chemical_formula_sum              "Al16 H64 C128 N16 O112"
_cell_length_a       21.62769
_cell_length_b       21.646490000000004
_cell_length_c       10.3079
_cell_angle_alpha    89.86891
_cell_angle_beta     90.04471
_cell_angle_gamma    90.32585

_space_group_name_H-M_alt    "P 1"
_space_group_IT_number       1

loop_
  _space_group_symop_operation_xyz
  'x, y, z'

loop_
  _atom_site_type_symbol
  _atom_site_label
  _atom_site_symmetry_multiplicity
  _atom_site_fract_x
  _atom_site_fract_y
  _atom_site_fract_z
  _atom_site_occupancy
  Al  Al1       1.0  0.17704796914807305  0.24985884045492288  0.08897068562778615  1.0000
  Al  Al2       1.0  0.17797852676628775  0.7461825327747594  0.11959792000641728  1.0000
  Al  Al3       1.0  0.2513333967315948  0.17849535081800597  0.8478907429010745  1.0000
  Al  Al4       1.0  0.2516180823535681  0.6775595657187753  0.3517752188366835  1.0000
  Al  Al5       1.0  0.2490734077003987  0.8149242920048231  0.8768631271483522  1.0000
  Al  Al6       1.0  0.2555118557862998  0.3188852487324343  0.3408322218688103  1.0000
  Al  Al7       1.0  0.32120632777847696  0.7456676011976935  0.6212395935156879  1.0000
  Al  Al8       1.0  0.3179355358145994  0.24914588387928913  0.5925685857898716  1.0000
  Al  Al9       1.0  0.682978675045204  0.7494981588334374  0.6092713090718819  1.0000
  Al  Al10      1.0  0.6807379408783926  0.2548625713231161  0.5870136078866967  1.0000
  Al  Al11      1.0  0.7524272594557394  0.6812964907423205  0.3523486602953102  1.0000
  Al  Al12      1.0  0.7489843306537813  0.18512890924675005  0.852089632687186  1.0000
  Al  Al13      1.0  0.7558824089847951  0.32123085172330307  0.3455329874068586  1.0000
  Al  Al14      1.0  0.7516503560551708  0.8238998796560845  0.8568782349947361  1.0000
  Al  Al15      1.0  0.8264936963729465  0.25097535776439406  0.10500945311588183  1.0000
  Al  Al16      1.0  0.8263241030029869  0.7549472549870068  0.10199434232744826  1.0000
  H   H1        1.0  0.9905794199517434  0.22878058219783262  0.9418676626073866  1.0000
  H   H2        1.0  0.9987174002286439  0.7370291052491303  0.27036447528298646  1.0000
  H   H3        1.0  0.09329881554011797  0.1437296912685249  0.6315954177690887  1.0000
  H   H4        1.0  0.10994606578953005  0.33132585371556156  0.5714323607210817  1.0000
  H   H5        1.0  0.09776254066682544  0.6721180958991312  0.6132800693741428  1.0000
  H   H6        1.0  0.10784536411549094  0.8413631403532504  0.6368118097175705  1.0000
  H   H7        1.0  0.17300323466243686  0.9106538000054512  0.3561313059877431  1.0000
  H   H8        1.0  0.16841777363586588  0.10632199347077534  0.33158438112856187  1.0000
  H   H9        1.0  0.16353964731169626  0.6016982731472827  0.8782579575080469  1.0000
  H   H10       1.0  0.17104652931514808  0.40079346620115813  0.8687873471749379  1.0000
  H   H11       1.0  0.23201107524383346  0.0009236800915808363  0.007470630139049916  1.0000
  H   H12       1.0  0.2361981591758119  0.4980976617288951  0.2041380006631619  1.0000
  H   H13       1.0  0.28157352483843073  0.0005618535622415834  0.7372117159469094  1.0000
  H   H14       1.0  0.26825309724535307  0.5033970680927949  0.49392665672021135  1.0000
  H   H15       1.0  0.3446064523572682  0.09549518022413556  0.4027417503046766  1.0000
  H   H16       1.0  0.338470056979334  0.8977056879672025  0.3876559168382088  1.0000
  H   H17       1.0  0.3369792512687451  0.392562943848964  0.8029800503295658  1.0000
  H   H18       1.0  0.3286320885060472  0.5840233822449714  0.8570647584959683  1.0000
  H   H19       1.0  0.39688341137225686  0.6742941024368144  0.1464454394629921  1.0000
  H   H20       1.0  0.4061577266919411  0.8312457373162081  0.12198553161132397  1.0000
  H   H21       1.0  0.40142598992245454  0.17465446254098307  0.09058412856244552  1.0000
  H   H22       1.0  0.39785203559568877  0.3341546810743257  0.1506246530211068  1.0000
  H   H23       1.0  0.4934287261833423  0.764481614387494  0.7705789014540344  1.0000
  H   H24       1.0  0.5151608785924596  0.2593309015709448  0.45179561310037064  1.0000
  H   H25       1.0  0.5067348047535838  0.7233261316331977  0.48301243097281416  1.0000
  H   H26       1.0  0.4995316202202982  0.2132145843103721  0.7305805768178686  1.0000
  H   H27       1.0  0.5936480847191543  0.6662607367379737  0.11397825657646353  1.0000
  H   H28       1.0  0.6045128878909669  0.828631583460128  0.08745077026005636  1.0000
  H   H29       1.0  0.5995228775082564  0.16827597858530446  0.08589422656848088  1.0000
  H   H30       1.0  0.5998953486259093  0.34791882857509987  0.12839933000914838  1.0000
  H   H31       1.0  0.6757968172092408  0.40036795078505966  0.8362979948198076  1.0000
  H   H32       1.0  0.6741031902666252  0.5967834036602041  0.8467676641257378  1.0000
  H   H33       1.0  0.6497958728714046  0.10030728245947153  0.3756654386724879  1.0000
  H   H34       1.0  0.6409489797555326  0.8993494617785844  0.38791132945047724  1.0000
  H   H35       1.0  0.7253261710890487  0.5068130554755075  0.48490696398757616  1.0000
  H   H36       1.0  0.7244109201278034  0.9951560186567969  0.7111563000006851  1.0000
  H   H37       1.0  0.7673668235936574  0.5015259277460347  0.20433699521808185  1.0000
  H   H38       1.0  0.7680402585326362  0.005605685588035443  0.9927522760844503  1.0000
  H   H39       1.0  0.8325568192376133  0.5996756797680803  0.8649198352588133  1.0000
  H   H40       1.0  0.8499475343932261  0.40492379079510443  0.8885457832320749  1.0000
  H   H41       1.0  0.8262479404031319  0.908694787179495  0.33277204453689424  1.0000
  H   H42       1.0  0.8248160542120876  0.10570407284986029  0.327245389652966  1.0000
  H   H43       1.0  0.8932507417442652  0.14691329473930032  0.6288197114360271  1.0000
  H   H44       1.0  0.9104263913146391  0.3169858099473439  0.5838572351302712  1.0000
  H   H45       1.0  0.8992732587558206  0.6638069974451822  0.5832999541393483  1.0000
  H   H46       1.0  0.9081118152692806  0.8520773179316685  0.6562582889878616  1.0000
  H   H47       1.0  0.005222147302403782  0.2805760520838426  0.23588805188134648  1.0000
  H   H48       1.0  0.0013107202535775908  0.7636517914219191  0.9641942693958612  1.0000
  H   H49       1.0  0.27577354168967316  0.7408134144528014  0.027902841265539238  1.0000
  H   H50       1.0  0.22197874661281888  0.7462836496717834  0.5273486314321649  1.0000
  H   H51       1.0  0.24426430418414719  0.7132293660271628  0.7914433603864783  1.0000
  H   H52       1.0  0.265335298003529  0.7742209442662086  0.2963119921189649  1.0000
  H   H53       1.0  0.7813050801899565  0.7435955465945605  0.720470823770594  1.0000
  H   H54       1.0  0.718417364063071  0.7550435210554561  0.18663028080946228  1.0000
  H   H55       1.0  0.7643350544801479  0.785859867701311  0.4589845881361422  1.0000
  H   H56       1.0  0.7466245301971715  0.7304859492292497  0.9298239629710073  1.0000
  H   H57       1.0  0.25138250692839625  0.21595913341576936  0.2624254781756677  1.0000
  H   H58       1.0  0.24621430732889169  0.2785864318084897  0.7693242261411134  1.0000
  H   H59       1.0  0.2778378604591342  0.23810743639746634  0.01659594217048288  1.0000
  H   H60       1.0  0.22006872764829874  0.24891119772888462  0.5051631731061762  1.0000
  H   H61       1.0  0.787704474094951  0.24458908687119243  0.49594794434109446  1.0000
  H   H62       1.0  0.7199141649636377  0.24844862441847554  0.01692973373020723  1.0000
  H   H63       1.0  0.7576606126238152  0.27808032038125086  0.7653320075686411  1.0000
  H   H64       1.0  0.7612881495907057  0.221937811642925  0.29033897149639887  1.0000
  C   C1        1.0  0.9936955645730148  0.19781082526772126  0.8586542187843254  1.0000
  C   C2        1.0  6.204834518475089e-05  0.6794985909368826  0.6172476640427098  1.0000
  C   C3        1.0  0.9998030003131716  0.7155442814017559  0.36064570809642693  1.0000
  C   C4        1.0  0.007326731175269864  0.8467771298423392  0.6374335928802238  1.0000
  C   C5        1.0  0.048982429970115184  0.15822934711191783  0.6757722477666214  1.0000
  C   C6        1.0  0.052576466639856614  0.18456043018282361  0.798136006888126  1.0000
  C   C7        1.0  0.06215127388106418  0.3016116366139008  0.4051994889097293  1.0000
  C   C8        1.0  0.06594188611373653  0.3182161083113304  0.5307983984595854  1.0000
  C   C9        1.0  0.059513520375291847  0.8067484663751994  0.8130481788704594  1.0000
  C   C10       1.0  0.05649306761679486  0.7047296819643748  0.42555878722148577  1.0000
  C   C11       1.0  0.05739410025496229  0.6877131463786663  0.5589049074084471  1.0000
  C   C12       1.0  0.06449549344859379  0.8278070581976033  0.6840895364128678  1.0000
  C   C13       1.0  0.11701699725159721  0.709388517229746  0.35410422570551653  1.0000
  C   C14       1.0  0.1147912101272246  0.19909950305186128  0.8603658905481603  1.0000
  C   C15       1.0  0.12129226581260286  0.3021640362921124  0.33210886387887206  1.0000
  C   C16       1.0  0.11942587499159343  0.795935361175969  0.8882025445217626  1.0000
  C   C17       1.0  0.1809750171374419  0.9511971223747607  0.2987719174027427  1.0000
  C   C18       1.0  0.17228519875588402  0.007960066040592765  0.35600536144228545  1.0000
  C   C19       1.0  0.17654952253838688  0.06176923628930261  0.28458185580890305  1.0000
  C   C20       1.0  0.16905909794650617  0.5013876946352592  0.8607857862206858  1.0000
  C   C21       1.0  0.17829074140628381  0.558152923953478  0.9243113507554674  1.0000
  C   C22       1.0  0.17851061092589646  0.44485720844308396  0.9139994434316188  1.0000
  C   C23       1.0  0.20778731513589047  0.9445482012327613  0.17123914275491464  1.0000
  C   C24       1.0  0.20040806020980786  0.05840600037574442  0.16003514521139364  1.0000
  C   C25       1.0  0.20742771702576146  0.8854938389905674  0.10198645709023517  1.0000
  C   C26       1.0  0.2008079977683195  0.4425491354157624  0.04669207417850122  1.0000
  C   C27       1.0  0.21270553872259548  0.37815654530468557  0.09682617760735453  1.0000
  C   C28       1.0  0.2008855915961557  0.6110922571720896  0.13153150280958448  1.0000
  C   C29       1.0  0.21512078306699575  0.0013135620980962623  0.1014891011857607  1.0000
  C   C30       1.0  0.20728339806045593  0.11469694365940708  0.08314035306803269  1.0000
  C   C31       1.0  0.19926016304011607  0.5530756790746401  0.05292903196788681  1.0000
  C   C32       1.0  0.21191389722763684  0.4959771482475375  0.11537576547207672  1.0000
  C   C33       1.0  0.3052080897562843  0.9975729085286433  0.6394761719997679  1.0000
  C   C34       1.0  0.28433015743720613  0.4994280747262715  0.5942646617031359  1.0000
  C   C35       1.0  0.29261359986735075  0.38150180435943  0.5722162181049175  1.0000
  C   C36       1.0  0.3140524920752011  0.9415430386275447  0.5737499830846619  1.0000
  C   C37       1.0  0.29978825508482987  0.8796360534733556  0.6433881072546259  1.0000
  C   C38       1.0  0.30107013140062894  0.11473434447169911  0.6229599955021706  1.0000
  C   C39       1.0  0.29048228432628104  0.617125105738399  0.5953100328627283  1.0000
  C   C40       1.0  0.31726980841485697  0.0512613689457131  0.571253872827605  1.0000
  C   C41       1.0  0.29863416500703516  0.44097813937292474  0.640488316120169  1.0000
  C   C42       1.0  0.2937276312480951  0.5562087884025472  0.6623828287896714  1.0000
  C   C43       1.0  0.3417583314855848  0.05053612546617978  0.4456262405638995  1.0000
  C   C44       1.0  0.3323308297974101  0.9396875562265324  0.44271632997701016  1.0000
  C   C45       1.0  0.3472700417775865  0.9960412832856589  0.38236515841042007  1.0000
  C   C46       1.0  0.3224759945306394  0.43666792761137146  0.768750293795426  1.0000
  C   C47       1.0  0.32727118051829096  0.48859436114805316  0.8449168249100457  1.0000
  C   C48       1.0  0.314556642289129  0.5479672919338471  0.7901825402541052  1.0000
  C   C49       1.0  0.38947912945495716  0.6991150854889209  0.39905979854818086  1.0000
  C   C50       1.0  0.38235576826494305  0.2101348355077258  0.8363903494965071  1.0000
  C   C51       1.0  0.38799090206844045  0.28781615995069876  0.37512328398799044  1.0000
  C   C52       1.0  0.38336577390343546  0.7975793748150479  0.8587088876927201  1.0000
  C   C53       1.0  0.4430980645342441  0.6802573993439485  0.18978067657936332  1.0000
  C   C54       1.0  0.44703677676867387  0.8246814368887845  0.05857502382460316  1.0000
  C   C55       1.0  0.4443292493982267  0.8044450307460498  0.9288605195036697  1.0000
  C   C56       1.0  0.4466407664845256  0.6961838835791163  0.322051669701737  1.0000
  C   C57       1.0  0.4419387502674012  0.18471285128875395  0.03543129186753503  1.0000
  C   C58       1.0  0.44229022768458676  0.20528493994481975  0.9054700003826675  1.0000
  C   C59       1.0  0.4478167749085168  0.2974359634373053  0.30904659880110635  1.0000
  C   C60       1.0  0.4432559358037319  0.3252223358261217  0.18622130397857464  1.0000
  C   C61       1.0  0.4958899342714891  0.6710374428830147  0.12099058406016996  1.0000
  C   C62       1.0  0.4966978784110497  0.7892242714920569  0.8623414626137785  1.0000
  C   C63       1.0  0.5038154717707367  0.8327020108934372  0.12227647338728032  1.0000
  C   C64       1.0  0.5081218055155805  0.28363305426023655  0.3621336032698339  1.0000
  C   C65       1.0  0.5027343056972664  0.7099860935036505  0.379999157477777  1.0000
  C   C66       1.0  0.49606061965755716  0.17154565894586832  0.0967764117487721  1.0000
  C   C67       1.0  0.4988976222400305  0.21126964425922362  0.8377277683831414  1.0000
  C   C68       1.0  0.49718069541663673  0.340700086758813  0.11325125283948267  1.0000
  C   C69       1.0  0.552499859276043  0.6760877984793239  0.1742561229887357  1.0000
  C   C70       1.0  0.5561994831416931  0.6972986349401585  0.30198955790903975  1.0000
  C   C71       1.0  0.5538558235684924  0.8052036144634205  0.9181037482063416  1.0000
  C   C72       1.0  0.5574285722189336  0.8255026998266617  0.04710482094440485  1.0000
  C   C73       1.0  0.560550457784254  0.30246666357105556  0.2940440444215093  1.0000
  C   C74       1.0  0.5580733477781018  0.2022462053621537  0.908076528214021  1.0000
  C   C75       1.0  0.55748125768001  0.1792552611960443  0.03271060563084461  1.0000
  C   C76       1.0  0.5557328805027391  0.3348247097311248  0.17571603565941446  1.0000
  C   C77       1.0  0.6180965888337946  0.20748317030619273  0.8338186591243469  1.0000
  C   C78       1.0  0.6153530065973434  0.7067172181813097  0.37319257764153985  1.0000
  C   C79       1.0  0.6157305664979322  0.7932161163757575  0.8383717685508907  1.0000
  C   C80       1.0  0.6218420209478428  0.2953811818018713  0.3496837207842567  1.0000
  C   C81       1.0  0.6796868727412246  0.44341371759307513  0.7883048186659753  1.0000
  C   C82       1.0  0.6703417284638097  0.49827179168642205  0.8587869950030673  1.0000
  C   C83       1.0  0.6817165166142773  0.5544662583744069  0.7924164450309106  1.0000
  C   C84       1.0  0.6516535701688699  0.9982554891832007  0.3663933504397561  1.0000
  C   C85       1.0  0.6600630425822562  0.05654473727119455  0.42710466236561634  1.0000
  C   C86       1.0  0.6590481961266934  0.9425412000329687  0.43013558146364483  1.0000
  C   C87       1.0  0.7014852947234275  0.4448725947517495  0.6552599653754994  1.0000
  C   C88       1.0  0.6989294705041271  0.5575934297755587  0.6603860690295729  1.0000
  C   C89       1.0  0.710581981044828  0.3851154172805468  0.5872242935087494  1.0000
  C   C90       1.0  0.6871333509744553  0.9452040164963776  0.5563849183092688  1.0000
  C   C91       1.0  0.7024129986432502  0.8862449736597057  0.6293957188951987  1.0000
  C   C92       1.0  0.7011585311709868  0.11787513530947819  0.6137976826159999  1.0000
  C   C93       1.0  0.7100510207892302  0.5027764540124147  0.587535433444004  1.0000
  C   C94       1.0  0.6862735693478731  0.057420544072256385  0.5523242530061943  1.0000
  C   C95       1.0  0.7078984402849202  0.6177421302256085  0.5838391538001558  1.0000
  C   C96       1.0  0.7029127955145921  0.001436837045731465  0.6120723552666567  1.0000
  C   C97       1.0  0.7859091594159879  0.49996794949867246  0.10695162933924811  1.0000
  C   C98       1.0  0.7794335643930588  0.002566203007123402  0.09407968875573337  1.0000
  C   C99       1.0  0.8027545851493523  0.4446164974031107  0.04788471630698345  1.0000
  C   C100      1.0  0.7897849246793589  0.8868074546019512  0.08821557036045044  1.0000
  C   C101      1.0  0.8005853688149713  0.38303551800199553  0.1240701232902616  1.0000
  C   C102      1.0  0.7991945301236338  0.6186800416119813  0.12105025788229293  1.0000
  C   C103      1.0  0.792281706714716  0.12202212343330188  0.08374759200377925  1.0000
  C   C104      1.0  0.7998996356712509  0.5593122117191208  0.04703112967733945  1.0000
  C   C105      1.0  0.7924971290264963  0.9491873654176357  0.15991148629817936  1.0000
  C   C106      1.0  0.7909166437364479  0.06229986389174597  0.15859646292102636  1.0000
  C   C107      1.0  0.8224958530372202  0.5572195439266483  0.9203648399771995  1.0000
  C   C108      1.0  0.8331991823086365  0.4468434911118398  0.928208761186069  1.0000
  C   C109      1.0  0.8333059631917485  0.5010566878370687  0.8546783479151353  1.0000
  C   C110      1.0  0.8115610945296305  0.9508010856131076  0.2897007377964149  1.0000
  C   C111      1.0  0.8191790229251372  0.0061140679333666625  0.35556126484363804  1.0000
  C   C112      1.0  0.8115701916811339  0.06183638102773063  0.28585489670077097  1.0000
  C   C113      1.0  0.8820696210794244  0.19766182033954724  0.8580688621579512  1.0000
  C   C114      1.0  0.8830255027223824  0.7058703636143565  0.3415701512383568  1.0000
  C   C115      1.0  0.8838631252206689  0.800660083579554  0.8780901187593646  1.0000
  C   C116      1.0  0.8927544389561602  0.2933885910877057  0.33741864951599415  1.0000
  C   C117      1.0  0.937965233230871  0.15470916234011456  0.6709288058073508  1.0000
  C   C118      1.0  0.952797932953409  0.31239347749783397  0.5353620260630318  1.0000
  C   C119      1.0  0.9515622143255862  0.2948399044618794  0.4063041332267094  1.0000
  C   C120      1.0  0.9402930880160469  0.1824493489761089  0.7917672847282283  1.0000
  C   C121      1.0  0.9442900672533073  0.6810157797155513  0.5433677023194808  1.0000
  C   C122      1.0  0.943601953673108  0.7053441129965002  0.41701706714535286  1.0000
  C   C123      1.0  0.9462727795709229  0.8080106867451413  0.8173441546696245  1.0000
  C   C124      1.0  0.9501521358148441  0.8329277923873706  0.6937260985868863  1.0000
  C   C125      1.0  0.9938550239842345  0.14514308845041032  0.6117580759825313  1.0000
  C   C126      1.0  0.007797352284589212  0.28989695814808975  0.3402367962368954  1.0000
  C   C127      1.0  0.008930011307149375  0.32093928497326857  0.5978906271112595  1.0000
  C   C128      1.0  0.001776588290504  0.7904534805366411  0.875914872075922  1.0000
  N   N1        1.0  0.010295444398550744  0.8766680065409622  0.5062719986943655  1.0000
  N   N2        1.0  0.50410054568039  0.8466966227792748  0.2627012752126804  1.0000
  N   N3        1.0  0.9933881403038879  0.13669874597548068  0.46723581851807827  1.0000
  N   N4        1.0  0.4937200569228611  0.15126727263547335  0.23810207476205864  1.0000
  N   N5        1.0  0.9957641905649883  0.6545979632312171  0.7447719121957217  1.0000
  N   N6        1.0  0.00531967251633328  0.3369892381997094  0.7384927429697737  1.0000
  N   N7        1.0  0.3460934268206295  0.4835490757130542  0.9823117854546594  1.0000
  N   N8        1.0  0.14942646229660822  0.504383236065079  0.7229093003942408  1.0000
  N   N9        1.0  0.15846727264056673  0.007090389393255376  0.49152501311837427  1.0000
  N   N10       1.0  0.8372384120337567  0.007922725422777832  0.4932779242459754  1.0000
  N   N11       1.0  0.6312596306293822  0.9954102400890442  0.22846881685944137  1.0000
  N   N12       1.0  0.4887391850411933  0.6424221369059875  0.9908919586739291  1.0000
  N   N13       1.0  0.8587691846174715  0.5009923240867553  0.72689191659492  1.0000
  N   N14       1.0  0.6528274668093222  0.4970370831062257  0.0043578958841403725  1.0000
  N   N15       1.0  0.36616298799838765  0.9979113534418868  0.24375322869397323  1.0000
  N   N16       1.0  0.49663474091651577  0.3670823402356588  0.9759615394688174  1.0000
  O   O1        1.0  0.1206326773515206  0.27289052488270166  0.2263368148037069  1.0000
  O   O2        1.0  0.11765609493388446  0.7603403030886527  0.9894430075307198  1.0000
  O   O3        1.0  0.1186255194377011  0.7441113308035765  0.2535454854976492  1.0000
  O   O4        1.0  0.11387271581422061  0.234439116773504  0.9606988081560915  1.0000
  O   O5        1.0  0.16315213375043786  0.6771300886880459  0.3932377548007735  1.0000
  O   O6        1.0  0.15983778995744893  0.1694263163471907  0.8146427643689785  1.0000
  O   O7        1.0  0.1694324302707846  0.3267667065324857  0.386427614578147  1.0000
  O   O8        1.0  0.1680473214522683  0.8211771403362763  0.8421834900854144  1.0000
  O   O9        1.0  0.17387648217351537  0.8425182147870373  0.15107287462327665  1.0000
  O   O10       1.0  0.17440445899197554  0.1623494623346804  0.12769281450109268  1.0000
  O   O11       1.0  0.16743325753116792  0.6572970313644759  0.09477706367508068  1.0000
  O   O12       1.0  0.18544729306297109  0.332176048027909  0.04152544711846934  1.0000
  O   O13       1.0  0.2386135249369564  0.23901858075316623  0.9652165737142607  1.0000
  O   O14       1.0  0.24265331225501774  0.11331566616394319  0.979789220653611  1.0000
  O   O15       1.0  0.23883677490109104  0.8845443418771178  0.00315349671951326  1.0000
  O   O16       1.0  0.24471198934909577  0.377063989490677  0.20088149082687226  1.0000
  O   O17       1.0  0.24278344788970777  0.25308938063166325  0.22024551562294425  1.0000
  O   O18       1.0  0.2412122511868032  0.6186588503388152  0.22284686488684666  1.0000
  O   O19       1.0  0.24882245300722494  0.7412558100674647  0.23431670299721324  1.0000
  O   O20       1.0  0.2614261136263  0.7330269678248678  0.4860309750602754  1.0000
  O   O21       1.0  0.23684190067071104  0.7514702246137156  0.9861237747457617  1.0000
  O   O22       1.0  0.2543587745045862  0.7506377946842223  0.7402826413702571  1.0000
  O   O23       1.0  0.2553933733106524  0.24283047723842496  0.714508986835847  1.0000
  O   O24       1.0  0.27064724297554166  0.8793627745779192  0.751281677073659  1.0000
  O   O25       1.0  0.2654084327763709  0.11668227449583546  0.7211712080410528  1.0000
  O   O26       1.0  0.25963736904471846  0.6168119572039612  0.4893286505302589  1.0000
  O   O27       1.0  0.26249369375185905  0.3783262036320977  0.4697083108986645  1.0000
  O   O28       1.0  0.26198704229326314  0.2557955922777512  0.46130763645096895  1.0000
  O   O29       1.0  0.31854191377653845  0.1606005489841573  0.5594880191481443  1.0000
  O   O30       1.0  0.3236127048192695  0.8338563511760273  0.5837312876744161  1.0000
  O   O31       1.0  0.32720959113303527  0.3357918555405864  0.6174142668425475  1.0000
  O   O32       1.0  0.3168037770290526  0.6619414830548864  0.6653165493392723  1.0000
  O   O33       1.0  0.3439044303676508  0.6728372116015932  0.34315567569903505  1.0000
  O   O34       1.0  0.33762613213024234  0.18302113767845227  0.8988761230740153  1.0000
  O   O35       1.0  0.3455730077083562  0.3193993284847361  0.3322003454362935  1.0000
  O   O36       1.0  0.3359899412974943  0.815875655172102  0.9245711435161138  1.0000
  O   O37       1.0  0.38592537596899534  0.2510740944423927  0.4727459927905676  1.0000
  O   O38       1.0  0.38219470754851803  0.7666110375625017  0.7553136739903058  1.0000
  O   O39       1.0  0.38758747073114086  0.7294911400483515  0.5073029672664007  1.0000
  O   O40       1.0  0.37934981919090593  0.2359385189982283  0.7256903036509224  1.0000
  O   O41       1.0  0.6154817195862174  0.7630636696731874  0.7358138597438502  1.0000
  O   O42       1.0  0.6218537312186722  0.2709158966779757  0.46459904195440377  1.0000
  O   O43       1.0  0.6134803180812238  0.23581939116028985  0.7201474009873625  1.0000
  O   O44       1.0  0.6169750698885828  0.7355741749101846  0.4824466060246894  1.0000
  O   O45       1.0  0.6647913910163921  0.18430860011488054  0.892767345015439  1.0000
  O   O46       1.0  0.6652343063142168  0.6911389923033016  0.3122716695524594  1.0000
  O   O47       1.0  0.6616128518095157  0.8178465973539993  0.8911260621875337  1.0000
  O   O48       1.0  0.6700530350426738  0.3188638478136885  0.29561530696384725  1.0000
  O   O49       1.0  0.6823408596661382  0.33924615010416026  0.6394179785998876  1.0000
  O   O50       1.0  0.6846997824204173  0.6641755448095478  0.6417351362699851  1.0000
  O   O51       1.0  0.6779471704112273  0.16811514609384365  0.5645069842758764  1.0000
  O   O52       1.0  0.6768684972267778  0.836434498509392  0.5840287584423068  1.0000
  O   O53       1.0  0.7465341403975319  0.745208604830387  0.4806780951659876  1.0000
  O   O54       1.0  0.7395350630900401  0.6181403467128463  0.4825102661213828  1.0000
  O   O55       1.0  0.7394996520801292  0.3822463891969141  0.47507968830992364  1.0000
  O   O56       1.0  0.7410581356950638  0.8845766739710161  0.7266244772496631  1.0000
  O   O57       1.0  0.7306112560148555  0.11681115317485984  0.7210073953423747  1.0000
  O   O58       1.0  0.7415430550351344  0.7546980405202448  0.7390344979596682  1.0000
  O   O59       1.0  0.7379970968861097  0.24227608727130243  0.7232594154039341  1.0000
  O   O60       1.0  0.7575157420759466  0.2465924931870784  0.9744124556903637  1.0000
  O   O61       1.0  0.7467379498430655  0.2571730584965336  0.4654936748914403  1.0000
  O   O62       1.0  0.7665907747584311  0.2573839698546907  0.23105460131701408  1.0000
  O   O63       1.0  0.7684962745450811  0.3839334568706366  0.22595256083024287  1.0000
  O   O64       1.0  0.7614583058173531  0.7437221575461962  0.22335331966433067  1.0000
  O   O65       1.0  0.7631305862649314  0.6176510608193801  0.22266431213806445  1.0000
  O   O66       1.0  0.7597290798052365  0.12144414336761318  0.9790570179763957  1.0000
  O   O67       1.0  0.7595426852714483  0.8886458485787548  0.9893027127848615  1.0000
  O   O68       1.0  0.764354762631254  0.7634748215997091  0.9753025585145225  1.0000
  O   O69       1.0  0.8286804886363902  0.664485691916658  0.07729844003625502  1.0000
  O   O70       1.0  0.8260813743997152  0.33733991463229657  0.08084601000466982  1.0000
  O   O71       1.0  0.8220497975583924  0.8428808135269792  0.14027218542626382  1.0000
  O   O72       1.0  0.8243481451802482  0.16377935011913705  0.13097418786402293  1.0000
  O   O73       1.0  0.8343208172903999  0.17535019943370167  0.8099605710481063  1.0000
  O   O74       1.0  0.8393501854748275  0.6731181105332951  0.3844458356045945  1.0000
  O   O75       1.0  0.8377214243660877  0.8238462137977083  0.8213072391920544  1.0000
  O   O76       1.0  0.8466617408795808  0.3223682139982723  0.39047564293487086  1.0000
  O   O77       1.0  0.8867545822571388  0.765953652885412  0.9839037981617059  1.0000
  O   O78       1.0  0.8893062728132822  0.2661431961697095  0.23147907213455657  1.0000
  O   O79       1.0  0.8844429083208827  0.23098725669573067  0.9624396207608967  1.0000
  O   O80       1.0  0.8835409911780909  0.7444014176308763  0.24331845021828738  1.0000
  O   O81       1.0  0.9726916556629979  0.9165711935322326  0.4822183328699796  1.0000
  O   O82       1.0  0.05434622563392317  0.8625423029511664  0.43422167976115567  1.0000
  O   O83       1.0  0.45121962336940485  0.8478004048113796  0.3275989282603616  1.0000
  O   O84       1.0  0.5554243838833912  0.8492365354314716  0.3145227718686443  1.0000
  O   O85       1.0  0.04435622326286725  0.1456372691252639  0.4085359328159222  1.0000
  O   O86       1.0  0.942418963140646  0.1270691690787022  0.41159779623129644  1.0000
  O   O87       1.0  0.4433093564513726  0.15197570481339756  0.29288392792639856  1.0000
  O   O88       1.0  0.5461586097048514  0.1451572503488144  0.285105192832694  1.0000
  O   O89       1.0  0.9487294369269619  0.6267430637103341  0.7736832770470558  1.0000
  O   O90       1.0  0.042788825677562065  0.6584580989241721  0.8198491416393413  1.0000
  O   O91       1.0  0.9521559675106617  0.33821340887284324  0.7850520312282077  1.0000
  O   O92       1.0  0.055129222129319644  0.3393775717067536  0.7998281198100005  1.0000
  O   O93       1.0  0.3584783459920046  0.5303207450167083  0.044806919434917755  1.0000
  O   O94       1.0  0.34471186359716216  0.42982804103186206  0.02591000181099923  1.0000
  O   O95       1.0  0.14230450896679384  0.557803085544816  0.6748130922850712  1.0000
  O   O96       1.0  0.14241349850225263  0.4557692419169726  0.6585231429326754  1.0000
  O   O97       1.0  0.1515157429431181  0.05900379532176114  0.5402186841377741  1.0000
  O   O98       1.0  0.15750005331200756  0.9568964012371436  0.5601355117930054  1.0000
  O   O99       1.0  0.8399078919847699  0.06019551736085144  0.5420088493247035  1.0000
  O   O100      1.0  0.8512555324477734  0.9588296046847401  0.5506968712073276  1.0000
  O   O101      1.0  0.6046894170862294  0.039361682495110885  0.17624978414552955  1.0000
  O   O102      1.0  0.6491049113706538  0.9480161950880927  0.17468920858315468  1.0000
  O   O103      1.0  0.43697540533714035  0.6371396688240445  0.9481767235568841  1.0000
  O   O104      1.0  0.5377874209632669  0.6248593126220318  0.9399293678842775  1.0000
  O   O105      1.0  0.8405431892628166  0.5468244149751531  0.6623718012931898  1.0000
  O   O106      1.0  0.8947312459346977  0.4593208973228706  0.6902055788238372  1.0000
  O   O107      1.0  0.6336323413298249  0.5456492761933572  0.05692145329805825  1.0000
  O   O108      1.0  0.6636323712748314  0.4478295113910084  0.05990963029702976  1.0000
  O   O109      1.0  0.3622864142358734  0.049942488412195195  0.19340690198300534  1.0000
  O   O110      1.0  0.3813335350042397  0.9486624900937107  0.18028843229080982  1.0000
  O   O111      1.0  0.447070546330567  0.3637830011994543  0.9128462420411901  1.0000
  O   O112      1.0  0.546625086464854  0.3896025514404305  0.9327804117855479  1.0000
