data_image0
_chemical_formula_structural       Al16H64C128N16O112
_chemical_formula_sum              "Al16 H64 C128 N16 O112"
_cell_length_a       21.62769
_cell_length_b       21.646490000000004
_cell_length_c       10.3079
_cell_angle_alpha    89.86891
_cell_angle_beta     90.04471
_cell_angle_gamma    90.32585

_space_group_name_H-M_alt    "P 1"
_space_group_IT_number       1

loop_
  _space_group_symop_operation_xyz
  'x, y, z'

loop_
  _atom_site_type_symbol
  _atom_site_label
  _atom_site_symmetry_multiplicity
  _atom_site_fract_x
  _atom_site_fract_y
  _atom_site_fract_z
  _atom_site_occupancy
  Al  Al1       1.0  0.1837037780584796  0.2530579937424813  0.0840196792539929  1.0000
  Al  Al2       1.0  0.18212171243211095  0.7575749655612481  0.1279206627377538  1.0000
  Al  Al3       1.0  0.25099923932889606  0.17727924421126237  0.8357839797995085  1.0000
  Al  Al4       1.0  0.24871035460811117  0.675982919800126  0.37585771602976226  1.0000
  Al  Al5       1.0  0.24965257332777832  0.8252154421052101  0.8640541568973013  1.0000
  Al  Al6       1.0  0.25240705343907843  0.3175906756111002  0.33862269943291  1.0000
  Al  Al7       1.0  0.3240757253958472  0.7426384192620984  0.6240497046288338  1.0000
  Al  Al8       1.0  0.32484070824675115  0.24186596569477542  0.5766469802374291  1.0000
  Al  Al9       1.0  0.6740930962018679  0.7487172023524862  0.608299852309837  1.0000
  Al  Al10      1.0  0.6840126765353345  0.25174200004299085  0.5921057811554936  1.0000
  Al  Al11      1.0  0.7502181795057514  0.6814323607163785  0.3558977048651723  1.0000
  Al  Al12      1.0  0.7463129689432428  0.18356287895777268  0.8494471973404573  1.0000
  Al  Al13      1.0  0.7586614160964805  0.32264552135334806  0.3493073510778732  1.0000
  Al  Al14      1.0  0.7517710261373155  0.8201339105083225  0.8560402568273856  1.0000
  Al  Al15      1.0  0.8264690189000203  0.25456132820501454  0.0935815004775472  1.0000
  Al  Al16      1.0  0.8198088325541357  0.7584402783324222  0.11631838504463356  1.0000
  H   H1        1.0  0.9930307794383751  0.21820018601115596  0.9584853246690667  1.0000
  H   H2        1.0  0.0030926931515306826  0.7387340321913366  0.2681231703352336  1.0000
  H   H3        1.0  0.10277915367233804  0.16422031912542526  0.6350315621955068  1.0000
  H   H4        1.0  0.10314443835247218  0.3262562315683889  0.5917220335912109  1.0000
  H   H5        1.0  0.09060948247431205  0.6724954101831198  0.6082033949426632  1.0000
  H   H6        1.0  0.10528704729261666  0.8590582614321018  0.6504966922582045  1.0000
  H   H7        1.0  0.15903876291902977  0.9003221883836728  0.3290005864128105  1.0000
  H   H8        1.0  0.17071899062372775  0.11066201667981841  0.3271950067900937  1.0000
  H   H9        1.0  0.14029994000113935  0.6062957554061966  0.9003096403787867  1.0000
  H   H10       1.0  0.15449778682860243  0.41155562110774574  0.8640045161858154  1.0000
  H   H11       1.0  0.24049001702136927  0.005744427818869857  0.0071324661920080246  1.0000
  H   H12       1.0  0.224786849582782  0.4998959723984149  0.21967952187175913  1.0000
  H   H13       1.0  0.279717129283386  0.9925238292888484  0.7007149876686403  1.0000
  H   H14       1.0  0.2718826933757169  0.49263694486936066  0.5031673534045005  1.0000
  H   H15       1.0  0.3599424323624683  0.0853198284591687  0.37193864836053536  1.0000
  H   H16       1.0  0.3363977143118264  0.8800531643568038  0.38221830750891633  1.0000
  H   H17       1.0  0.337922812399576  0.38352694423923545  0.8211566658920286  1.0000
  H   H18       1.0  0.3134003856853557  0.5878650986641334  0.8583183928566832  1.0000
  H   H19       1.0  0.40251799374426384  0.6539525538253761  0.14732730060525617  1.0000
  H   H20       1.0  0.4066362971009112  0.8393506463092822  0.10494312903525792  1.0000
  H   H21       1.0  0.3976500620624972  0.16964039003622966  0.061620426031189036  1.0000
  H   H22       1.0  0.41806289091233  0.34137685953197067  0.09747426494345728  1.0000
  H   H23       1.0  0.4953746060053288  0.7697076710403004  0.7700200905641098  1.0000
  H   H24       1.0  0.5041678513009115  0.2662538006773687  0.45444008572541467  1.0000
  H   H25       1.0  0.5088835706611424  0.7266004500027069  0.47120231208622243  1.0000
  H   H26       1.0  0.4971768182950078  0.23943228251088208  0.7292727644358196  1.0000
  H   H27       1.0  0.5965793853243682  0.6442153010307884  0.1385458336169677  1.0000
  H   H28       1.0  0.6029517883027763  0.8190882372060508  0.10466413638168762  1.0000
  H   H29       1.0  0.5984501391783894  0.1679406527964109  0.05539788635148126  1.0000
  H   H30       1.0  0.606173665352086  0.3669960331761273  0.16171438350444747  1.0000
  H   H31       1.0  0.6836754851081324  0.3875604973191041  0.8181737179073999  1.0000
  H   H32       1.0  0.6655738298870626  0.5841163369943032  0.8464510623443328  1.0000
  H   H33       1.0  0.6519935552226878  0.10490899796556867  0.37148728837962736  1.0000
  H   H34       1.0  0.6640903079914603  0.9071414263634364  0.36209008797514963  1.0000
  H   H35       1.0  0.7319203449744613  0.5034334520613878  0.4935658673422779  1.0000
  H   H36       1.0  0.71627821868531  0.006323544620398858  0.7119409790867748  1.0000
  H   H37       1.0  0.7745556953051145  0.5055080848266404  0.2228920769433279  1.0000
  H   H38       1.0  0.771628634112508  0.009278866716981552  0.980598929159004  1.0000
  H   H39       1.0  0.8480624448093586  0.605679891432802  0.8870313529936762  1.0000
  H   H40       1.0  0.8579839299819297  0.4067746325721231  0.8894859367277377  1.0000
  H   H41       1.0  0.8131394193302118  0.8980332300902439  0.329491759662664  1.0000
  H   H42       1.0  0.8264366597631053  0.09198787630796117  0.3453845231749556  1.0000
  H   H43       1.0  0.9008634995754827  0.15701899273055195  0.6245941886015385  1.0000
  H   H44       1.0  0.9045309791572037  0.3242918635901353  0.574312080783602  1.0000
  H   H45       1.0  0.8946028898117138  0.6629737930079371  0.5913586267957085  1.0000
  H   H46       1.0  0.9071295183897572  0.8461134929092827  0.6545951054180656  1.0000
  H   H47       1.0  0.00937641668944245  0.2677825915935658  0.23752859352799818  1.0000
  H   H48       1.0  0.008541318654516239  0.7850173240746002  0.9830488504361209  1.0000
  H   H49       1.0  0.28335948202327876  0.7587774088261211  0.023431630427274294  1.0000
  H   H50       1.0  0.2228856003407761  0.7435536295545553  0.5496251289351409  1.0000
  H   H51       1.0  0.25725060969846375  0.7191494293253122  0.8055194508105596  1.0000
  H   H52       1.0  0.2655889233411546  0.7756174995223772  0.2981638228101037  1.0000
  H   H53       1.0  0.773277823593177  0.7502577529317691  0.6762710491685673  1.0000
  H   H54       1.0  0.7174193529595988  0.7540918463270544  0.20773920052803063  1.0000
  H   H55       1.0  0.7514172941564476  0.7747764919942495  0.43273245065551835  1.0000
  H   H56       1.0  0.7496681341435034  0.719379471641502  0.9661595221617457  1.0000
  H   H57       1.0  0.27373564949177465  0.23427282648915557  0.22772064677089607  1.0000
  H   H58       1.0  0.249855218377832  0.2702776442246294  0.7343076416773275  1.0000
  H   H59       1.0  0.2830721630209096  0.25575417308968446  0.9693708723287108  1.0000
  H   H60       1.0  0.23179239093854287  0.22628451054967366  0.4757377563695067  1.0000
  H   H61       1.0  0.7756707775169536  0.2237295533656544  0.4666055525165726  1.0000
  H   H62       1.0  0.744271722682869  0.2887085005555771  0.9643270776289766  1.0000
  H   H63       1.0  0.7777638749989424  0.2683206043629045  0.7333861215171904  1.0000
  H   H64       1.0  0.7321982712325966  0.22879759195934957  0.22088858349333088  1.0000
  C   C1        1.0  0.9974660334966807  0.20085951080630332  0.8638472305388067  1.0000
  C   C2        1.0  0.991896438592382  0.6706628965282542  0.6125909551332981  1.0000
  C   C3        1.0  0.9968069888229782  0.7209998614714893  0.3635120801054512  1.0000
  C   C4        1.0  0.004659249899098758  0.8553613542804418  0.6387725242034743  1.0000
  C   C5        1.0  0.05701299468791769  0.17041438170622955  0.6771795550007991  1.0000
  C   C6        1.0  0.05665357568680551  0.19655200328823846  0.8002920614397049  1.0000
  C   C7        1.0  0.06302305569618391  0.290988018946432  0.406547261050736  1.0000
  C   C8        1.0  0.06350414291501742  0.31100155927890405  0.5342063304618655  1.0000
  C   C9        1.0  0.057696574488612484  0.8156489664748605  0.8215082981890005  1.0000
  C   C10       1.0  0.05045752652094855  0.7036869184012775  0.4302368914337392  1.0000
  C   C11       1.0  0.04926050746091757  0.6800098817745085  0.5564006625901167  1.0000
  C   C12       1.0  0.06133306520079003  0.8484934275811503  0.7011191642837639  1.0000
  C   C13       1.0  0.1110305549906192  0.7127425911495032  0.36244187549332657  1.0000
  C   C14       1.0  0.1163234260123271  0.20950537442439995  0.8674127043030836  1.0000
  C   C15       1.0  0.1203164680746424  0.287390197674359  0.33446618891628904  1.0000
  C   C16       1.0  0.12088269917663202  0.8032085547123482  0.8933402732739568  1.0000
  C   C17       1.0  0.1769872797974641  0.9474010151691405  0.28757022101358565  1.0000
  C   C18       1.0  0.16658302681855008  0.007284318242045212  0.3530069417840502  1.0000
  C   C19       1.0  0.1766723369077615  0.06349496216023426  0.28953526520097594  1.0000
  C   C20       1.0  0.15104870305328721  0.5084275702310419  0.8826004986985742  1.0000
  C   C21       1.0  0.15525823092134877  0.5640577530645279  0.9506703037082999  1.0000
  C   C22       1.0  0.16820010182759315  0.4498121548955323  0.9279882005849819  1.0000
  C   C23       1.0  0.20323721886655016  0.9501503723450139  0.1665753198636521  1.0000
  C   C24       1.0  0.20175796632076967  0.062273449159048845  0.15981306053210004  1.0000
  C   C25       1.0  0.20605393776205802  0.8920435223657769  0.09708204909231018  1.0000
  C   C26       1.0  0.18731989719593362  0.4460812429606992  0.06188141690551151  1.0000
  C   C27       1.0  0.20130517918714563  0.38642474211978173  0.12449540222820248  1.0000
  C   C28       1.0  0.1995572636727084  0.6190174633597011  0.13946731303153848  1.0000
  C   C29       1.0  0.21713966972428062  0.007275813160640936  0.1055636500554883  1.0000
  C   C30       1.0  0.2160084485416971  0.11723451100708666  0.08365958934161448  1.0000
  C   C31       1.0  0.1879644669085811  0.5604581561743567  0.06996690499516496  1.0000
  C   C32       1.0  0.2007490006204151  0.5029773989483955  0.1254610624483739  1.0000
  C   C33       1.0  0.2955298626074946  0.9878142234647684  0.6014285549324473  1.0000
  C   C34       1.0  0.28560382043844607  0.48997359372921906  0.5997266989695625  1.0000
  C   C35       1.0  0.2988496853234274  0.3751242278017163  0.5806306800761456  1.0000
  C   C36       1.0  0.30725851372383045  0.931914888598202  0.5419444703598045  1.0000
  C   C37       1.0  0.2943669495563617  0.8761177542542787  0.620310148342904  1.0000
  C   C38       1.0  0.30628411223705476  0.10629995624478693  0.6165011499703952  1.0000
  C   C39       1.0  0.2838054686223285  0.6083139371279913  0.6164671458550461  1.0000
  C   C40       1.0  0.3157414919974937  0.04553412634411278  0.54210110698815  1.0000
  C   C41       1.0  0.30461585911371614  0.4334357703185565  0.657625956606817  1.0000
  C   C42       1.0  0.291316565158964  0.5444119020041015  0.6776944382897138  1.0000
  C   C43       1.0  0.34224760047659686  0.04462377543146608  0.41999795844901555  1.0000
  C   C44       1.0  0.3321823801180882  0.9273840078690251  0.41334284831526286  1.0000
  C   C45       1.0  0.3441675222163604  0.9846570025804458  0.36253148760536047  1.0000
  C   C46       1.0  0.32609604441131884  0.4301948924155728  0.7849889706734184  1.0000
  C   C47       1.0  0.3275651890026339  0.48582191908781364  0.8606173702431474  1.0000
  C   C48       1.0  0.3103842813988531  0.5422334782657432  0.8052404911414954  1.0000
  C   C49       1.0  0.38343503195364215  0.6941308737263184  0.39397263407364214  1.0000
  C   C50       1.0  0.38757723798062726  0.20248778810527773  0.8020424298499419  1.0000
  C   C51       1.0  0.38847245492081023  0.2938931123896459  0.357964959305646  1.0000
  C   C52       1.0  0.38291345998469667  0.7913125443491726  0.8593231649399802  1.0000
  C   C53       1.0  0.44628832992406414  0.6632224133142236  0.19463106856808696  1.0000
  C   C54       1.0  0.4482801998604313  0.8262792880796562  0.051638311380771386  1.0000
  C   C55       1.0  0.4441268658644526  0.7993045856380037  0.9285637365597432  1.0000
  C   C56       1.0  0.44437744527973194  0.6846230379092733  0.3226376501233286  1.0000
  C   C57       1.0  0.4431115716770849  0.17637825052264774  0.01673198247914947  1.0000
  C   C58       1.0  0.44438422664651406  0.19559913384127212  0.8864218943946985  1.0000
  C   C59       1.0  0.44939075702905146  0.3081784904699649  0.294370981994901  1.0000
  C   C60       1.0  0.4542787620855391  0.3342117558815406  0.16852974498035656  1.0000
  C   C61       1.0  0.49905735824839914  0.6453795823986965  0.13371218029493634  1.0000
  C   C62       1.0  0.4995194977103156  0.7873825769181081  0.866286407598141  1.0000
  C   C63       1.0  0.5043010707039971  0.8310385597639636  0.1154007842199223  1.0000
  C   C64       1.0  0.5051372263291299  0.2925902487839147  0.36052109845333213  1.0000
  C   C65       1.0  0.5034705314613931  0.7021261386508414  0.37880845949488723  1.0000
  C   C66       1.0  0.5003842471380173  0.1711951658389093  0.0811345633143345  1.0000
  C   C67       1.0  0.4996804859450498  0.21782569302790245  0.8290280534931197  1.0000
  C   C68       1.0  0.5122053869247449  0.35346049487398357  0.12351823235568163  1.0000
  C   C69       1.0  0.5556334139136248  0.6557827251465678  0.19786368112973704  1.0000
  C   C70       1.0  0.5563404713369466  0.6856101907766292  0.3177448730443195  1.0000
  C   C71       1.0  0.5568460813320172  0.7977703620908211  0.924440194056928  1.0000
  C   C72       1.0  0.5593883171438813  0.8161138122293422  0.055724909296535764  1.0000
  C   C73       1.0  0.5635787343862163  0.3089189370810408  0.30704714304270403  1.0000
  C   C74       1.0  0.5559404659178298  0.20789967279773436  0.8948940414163608  1.0000
  C   C75       1.0  0.5544564751484444  0.17924017026566505  0.014841672451295524  1.0000
  C   C76       1.0  0.5636174454044273  0.3452739877923521  0.19539540979579378  1.0000
  C   C77       1.0  0.6169900694296161  0.21588443808419022  0.8319367300714294  1.0000
  C   C78       1.0  0.6155638915985084  0.7058896410164613  0.3772361967459097  1.0000
  C   C79       1.0  0.6133881044075242  0.7927058542907559  0.8402679944469195  1.0000
  C   C80       1.0  0.6229161473927628  0.2982505700040876  0.37951776122357234  1.0000
  C   C81       1.0  0.6915151700117147  0.4328713188744437  0.7812958167965856  1.0000
  C   C82       1.0  0.6777837563724054  0.4845824637531011  0.8508968935454505  1.0000
  C   C83       1.0  0.681480623753499  0.5457316849270896  0.7925187930428134  1.0000
  C   C84       1.0  0.6520901847018061  0.004698836083840627  0.364536881544986  1.0000
  C   C85       1.0  0.6588001436583824  0.06214181306674248  0.42354387628172985  1.0000
  C   C86       1.0  0.6638018074263716  0.9479127206617858  0.42321005367776454  1.0000
  C   C87       1.0  0.7100675980089185  0.44174761393516715  0.6490251865037787  1.0000
  C   C88       1.0  0.7003245901092856  0.5518116278725392  0.6650432319610092  1.0000
  C   C89       1.0  0.7215648784211507  0.3829370290124692  0.5743623239473897  1.0000
  C   C90       1.0  0.68354848000081  0.9484370526631392  0.5507251379588873  1.0000
  C   C91       1.0  0.6993439886184016  0.883131871331793  0.6195637235227822  1.0000
  C   C92       1.0  0.6975132238227475  0.11880347768924736  0.6209272894213959  1.0000
  C   C93       1.0  0.7176829179262164  0.49931371603782615  0.5962976704652603  1.0000
  C   C94       1.0  0.6837995270025294  0.061100463531354704  0.552586309086036  1.0000
  C   C95       1.0  0.7007170033198006  0.6124327830164188  0.5911532119036975  1.0000
  C   C96       1.0  0.6963462175642323  0.005125198205235131  0.6160291843745257  1.0000
  C   C97       1.0  0.7941368203912571  0.5031306872283151  0.12340913222136214  1.0000
  C   C98       1.0  0.7843961447895976  0.005392102838478685  0.0846019275757373  1.0000
  C   C99       1.0  0.81454828768418  0.44791218098567  0.06339549595593394  1.0000
  C   C100      1.0  0.7915181056541873  0.8905523280966651  0.06720557893661254  1.0000
  C   C101      1.0  0.8046059404551585  0.3897192974632947  0.12680667022370362  1.0000
  C   C102      1.0  0.7958212148532063  0.6210024861805927  0.12567074883391957  1.0000
  C   C103      1.0  0.7947232551029397  0.12166672071826491  0.07894428539745448  1.0000
  C   C104      1.0  0.8106998627622035  0.5604955734518609  0.06269248553671324  1.0000
  C   C105      1.0  0.7915459253721455  0.9484605284355972  0.14815441425839043  1.0000
  C   C106      1.0  0.800269143292284  0.05991697182263573  0.14967389112621612  1.0000
  C   C107      1.0  0.837364371750206  0.5618325619953903  0.9353918766213525  1.0000
  C   C108      1.0  0.8422424891245341  0.4497396359426579  0.9416893318753801  1.0000
  C   C109      1.0  0.850515861526234  0.5051196874941765  0.8735287011178241  1.0000
  C   C110      1.0  0.8103004235330046  0.9433042683990589  0.2748720922847475  1.0000
  C   C111      1.0  0.8195718256455574  0.9961167537236434  0.3429000331653568  1.0000
  C   C112      1.0  0.8155164597555953  0.0525021596505733  0.28215680581948716  1.0000
  C   C113      1.0  0.8831967428560268  0.20630516807930757  0.8668894943666544  1.0000
  C   C114      1.0  0.8823328898805448  0.7121194448844388  0.3407201579796082  1.0000
  C   C115      1.0  0.8824528266552946  0.8007947665494831  0.8807828700298208  1.0000
  C   C116      1.0  0.8876546865559265  0.28977764240809445  0.328046825838266  1.0000
  C   C117      1.0  0.9429760016350123  0.1688362607054129  0.6723660998380661  1.0000
  C   C118      1.0  0.9491029602745275  0.31106334254280843  0.523992077648734  1.0000
  C   C119      1.0  0.9503579473354781  0.29128742675449526  0.3968630255940049  1.0000
  C   C120      1.0  0.9417014976249307  0.1901367312082953  0.7989520144640437  1.0000
  C   C121      1.0  0.9361169516260514  0.6790416351690488  0.5454213128160366  1.0000
  C   C122      1.0  0.9380842185095027  0.7084732472951021  0.4244351428588833  1.0000
  C   C123      1.0  0.9460787214182049  0.8119332616232922  0.8254905738731614  1.0000
  C   C124      1.0  0.9488459801073216  0.8370937438784057  0.7006352214316649  1.0000
  C   C125      1.0  0.00020470091255408995  0.1579441184885895  0.6120759563986123  1.0000
  C   C126      1.0  0.00769272097815913  0.284533218970037  0.3392927651215058  1.0000
  C   C127      1.0  0.005257932925227007  0.3167957366667358  0.590774930066095  1.0000
  C   C128      1.0  0.004806132922478253  0.8052933860836584  0.8873980495085917  1.0000
  N   N1        1.0  0.9977802314299921  0.8797518873454983  0.5080632931155612  1.0000
  N   N2        1.0  0.5038166321156915  0.8458097954002504  0.2607070843635245  1.0000
  N   N3        1.0  0.0017410371962904847  0.1382644418478307  0.47362566628397396  1.0000
  N   N4        1.0  0.5024917243393278  0.15724617796702914  0.21958094185460733  1.0000
  N   N5        1.0  0.9894432534590374  0.6587341653418773  0.7534457643225959  1.0000
  N   N6        1.0  0.0009491014510418763  0.33539106640133026  0.7328135764610225  1.0000
  N   N7        1.0  0.34791064206885874  0.48205969031483054  0.00393519652859986  1.0000
  N   N8        1.0  0.1273404144870076  0.5101034328683207  0.7486865182254379  1.0000
  N   N9        1.0  0.14769554077289246  0.007484785641763688  0.48110058594303395  1.0000
  N   N10       1.0  0.8265864256222452  0.9914774594345451  0.47975115681566405  1.0000
  N   N11       1.0  0.6311380903482892  0.004418652929358774  0.22617535176601913  1.0000
  N   N12       1.0  0.4967761661551285  0.623625697401899  0.995869308026473  1.0000
  N   N13       1.0  0.87225061996833  0.503982993621122  0.7378899705242006  1.0000
  N   N14       1.0  0.661731412424914  0.4797271157905148  0.9944968498930788  1.0000
  N   N15       1.0  0.36965632509557134  0.9879937080496219  0.2230693279178274  1.0000
  N   N16       1.0  0.5088931316867211  0.38437570298966667  0.9904330840464348  1.0000
  O   O1        1.0  0.11957997628251177  0.25808359544867243  0.22320436648563197  1.0000
  O   O2        1.0  0.12006590601078412  0.7737326316982943  0.9952683691313836  1.0000
  O   O3        1.0  0.11627111245077672  0.7453426269245741  0.2580092971350991  1.0000
  O   O4        1.0  0.11167794649802854  0.23561895493955465  0.9783493062949291  1.0000
  O   O5        1.0  0.1572126841254968  0.6908178119052006  0.419984371742917  1.0000
  O   O6        1.0  0.16258495852389887  0.1839092686846867  0.8182826162541529  1.0000
  O   O7        1.0  0.16866174481901813  0.3110469932101855  0.3903685606762161  1.0000
  O   O8        1.0  0.1662900621288358  0.8244146071810072  0.8286482582487688  1.0000
  O   O9        1.0  0.18410630453213347  0.8436902109733224  0.1507914876826195  1.0000
  O   O10       1.0  0.2000348742339361  0.16813788866448512  0.13623171149155996  1.0000
  O   O11       1.0  0.17975193714768412  0.6670313374913253  0.0836029646460369  1.0000
  O   O12       1.0  0.17300657910060302  0.34022164899098956  0.07447710060919376  1.0000
  O   O13       1.0  0.2395560624327735  0.2487385928984235  0.9428217345944736  1.0000
  O   O14       1.0  0.23714441438137157  0.11019587860026678  0.9695948225728617  1.0000
  O   O15       1.0  0.2383775537154072  0.8931476088248727  0.985394142919754  1.0000
  O   O16       1.0  0.23403541230725064  0.3872738395452351  0.22540831356987573  1.0000
  O   O17       1.0  0.2546840700292027  0.2705106493773398  0.18915865185370964  1.0000
  O   O18       1.0  0.23042025590152718  0.6160678463868166  0.24283166390773972  1.0000
  O   O19       1.0  0.2471580288847377  0.7423929080929351  0.2441502127465109  1.0000
  O   O20       1.0  0.26294491730645586  0.7336996573772684  0.4995389093077597  1.0000
  O   O21       1.0  0.24383426798960187  0.7631655320349207  0.988439501470376  1.0000
  O   O22       1.0  0.26214714056559674  0.7551147609077549  0.752876962037733  1.0000
  O   O23       1.0  0.25463220359521826  0.23382562015370364  0.6833914377746523  1.0000
  O   O24       1.0  0.26091301514616394  0.878810062114748  0.7225633685960219  1.0000
  O   O25       1.0  0.26938405856383424  0.11167374204141246  0.7140082655416219  1.0000
  O   O26       1.0  0.25175345093642615  0.6096526828727795  0.5101805316944367  1.0000
  O   O27       1.0  0.2653027208912822  0.3734848048783259  0.4824543942486494  1.0000
  O   O28       1.0  0.26760104888041775  0.24261728273970645  0.43724598061505676  1.0000
  O   O29       1.0  0.3373315050716191  0.1507341471094982  0.5694153591457212  1.0000
  O   O30       1.0  0.3229915867082564  0.8273558080610806  0.5786450001996855  1.0000
  O   O31       1.0  0.3262610351842399  0.32878790200160496  0.6339797580871003  1.0000
  O   O32       1.0  0.3169882856092331  0.6516685560519611  0.6604936392648908  1.0000
  O   O33       1.0  0.33605817979330865  0.6656579551240536  0.33552312017512265  1.0000
  O   O34       1.0  0.3389527814226364  0.18320829263662428  0.8701937667378495  1.0000
  O   O35       1.0  0.34426065677589973  0.3210354110820394  0.3041220848064735  1.0000
  O   O36       1.0  0.3339360046127875  0.8210803865035948  0.8959869102646778  1.0000
  O   O37       1.0  0.3926541802434449  0.2615412512012351  0.4637475828254006  1.0000
  O   O38       1.0  0.3855253796651545  0.7571809335520121  0.7585322613459532  1.0000
  O   O39       1.0  0.38276472028509784  0.7293020936360065  0.4929327433303355  1.0000
  O   O40       1.0  0.38930086717280665  0.23062367014868587  0.6932823366839621  1.0000
  O   O41       1.0  0.6107636664170856  0.7588835124722116  0.7411475562374672  1.0000
  O   O42       1.0  0.6212300188331763  0.26642033522079117  0.484114325934201  1.0000
  O   O43       1.0  0.6187053380916526  0.24195572227369044  0.7237405642743433  1.0000
  O   O44       1.0  0.6136775418481653  0.7379322927162043  0.4865289217754613  1.0000
  O   O45       1.0  0.6603764546411626  0.18962206182379338  0.8895901929903292  1.0000
  O   O46       1.0  0.6634965875638329  0.6891757720819085  0.3072021081326982  1.0000
  O   O47       1.0  0.6584541326353557  0.8248770046329013  0.8836137293674101  1.0000
  O   O48       1.0  0.6688942671806597  0.32356051832151184  0.3292329845710426  1.0000
  O   O49       1.0  0.687056799051069  0.3379487482398515  0.6100373955680123  1.0000
  O   O50       1.0  0.677238830101864  0.6609941011346087  0.6464297657197741  1.0000
  O   O51       1.0  0.6818648611670084  0.16559918213525945  0.5631707926068938  1.0000
  O   O52       1.0  0.6649603608343867  0.8393001847015255  0.5736881109422234  1.0000
  O   O53       1.0  0.7425791288887416  0.7421728441268408  0.4906124598932225  1.0000
  O   O54       1.0  0.7285378265543342  0.6163365567074987  0.4880730817252768  1.0000
  O   O55       1.0  0.7608668092128633  0.3842504345834722  0.4840060116072317  1.0000
  O   O56       1.0  0.7359883355846463  0.8849985957523437  0.7139092790389395  1.0000
  O   O57       1.0  0.7256704135731034  0.11667482953640466  0.7332821524138281  1.0000
  O   O58       1.0  0.7378335675650246  0.7578331027096071  0.731389825480442  1.0000
  O   O59       1.0  0.7440108842250299  0.2355240792113562  0.7175148639028491  1.0000
  O   O60       1.0  0.7699981374868669  0.25202073944857717  0.9639441940467364  1.0000
  O   O61       1.0  0.7472990051908761  0.25841055205576574  0.47179529298415884  1.0000
  O   O62       1.0  0.7642195214272995  0.26062820180916335  0.21968693659469463  1.0000
  O   O63       1.0  0.7660786961242535  0.3873217792729359  0.22343623107097202  1.0000
  O   O64       1.0  0.758552692045593  0.7495849460903564  0.2421632241612662  1.0000
  O   O65       1.0  0.7596799810661781  0.6204204766111503  0.22838038054803514  1.0000
  O   O66       1.0  0.7639876039680791  0.12022880228931422  0.9739357717759055  1.0000
  O   O67       1.0  0.7571240176209413  0.8877689596008945  0.9633152468613833  1.0000
  O   O68       1.0  0.7531854460673709  0.7615891023415997  0.9957656707084364  1.0000
  O   O69       1.0  0.8244855358481619  0.6691321811512011  0.0855284895146387  1.0000
  O   O70       1.0  0.8325730702083283  0.3451791252912967  0.08107580626745348  1.0000
  O   O71       1.0  0.8274488715255421  0.8466415666323784  0.10995822915498599  1.0000
  O   O72       1.0  0.8279077512941704  0.16570374436111387  0.12120652586027642  1.0000
  O   O73       1.0  0.83696104316384  0.1795483932051444  0.8151401551982241  1.0000
  O   O74       1.0  0.835941578937189  0.6814062347749612  0.3767806739263105  1.0000
  O   O75       1.0  0.8343766168943757  0.822114661276624  0.8250376306359625  1.0000
  O   O76       1.0  0.8467754378305744  0.3205148492445514  0.38099898673582777  1.0000
  O   O77       1.0  0.8842693423791056  0.7654199679498925  0.9815369958995923  1.0000
  O   O78       1.0  0.8849130485151809  0.25422497305996444  0.22850715455680695  1.0000
  O   O79       1.0  0.8877525987725964  0.24414180208890476  0.9617573207309509  1.0000
  O   O80       1.0  0.8802995988218526  0.7516639978324554  0.24279899081422343  1.0000
  O   O81       1.0  0.9466266061491766  0.8892993788594692  0.4616320051134183  1.0000
  O   O82       1.0  0.044975154080443905  0.8793571703642186  0.4391241368225605  1.0000
  O   O83       1.0  0.4545502537865782  0.862571345290807  0.31384600062399337  1.0000
  O   O84       1.0  0.5536824791075132  0.8373935000104173  0.32249996794437674  1.0000
  O   O85       1.0  0.05087119316141652  0.12827754716835926  0.4171465031977902  1.0000
  O   O86       1.0  0.9500909303147813  0.13161350118191797  0.42293370463534163  1.0000
  O   O87       1.0  0.4499143321451496  0.14856246650425467  0.2667138917917526  1.0000
  O   O88       1.0  0.552276939238092  0.15646495729929955  0.2776949373574971  1.0000
  O   O89       1.0  0.9433087236376636  0.6385696785832615  0.7987867058210024  1.0000
  O   O90       1.0  0.03726267643997696  0.6745643947780382  0.8161469703806316  1.0000
  O   O91       1.0  0.9506750206017012  0.3280214237886118  0.7882852472122922  1.0000
  O   O92       1.0  0.04851566284214943  0.34888671699271034  0.7939233693539159  1.0000
  O   O93       1.0  0.3489428008284529  0.5326686216459096  0.06671578424508579  1.0000
  O   O94       1.0  0.3587964427029977  0.43087196992079824  0.050880869735626014  1.0000
  O   O95       1.0  0.11226288915404746  0.5594669094165569  0.6998369139237778  1.0000
  O   O96       1.0  0.1247064351713394  0.4617500575271062  0.6893758050673026  1.0000
  O   O97       1.0  0.15463293460194252  0.05482315132698673  0.5457570320291002  1.0000
  O   O98       1.0  0.13276211357068116  0.9563370428186305  0.5342788556296285  1.0000
  O   O99       1.0  0.8366907344686964  0.04029775611603537  0.5356403444744929  1.0000
  O   O100      1.0  0.8249147679826175  0.9415331085816406  0.5479492589422353  1.0000
  O   O101      1.0  0.6514568993163438  0.04595610364087141  0.1577659751469488  1.0000
  O   O102      1.0  0.5992221359172382  0.9612066744111195  0.18451004646133057  1.0000
  O   O103      1.0  0.4487435478630444  0.6167430606591551  0.9363125741091033  1.0000
  O   O104      1.0  0.5489943938846378  0.6150812408947316  0.9504915490283771  1.0000
  O   O105      1.0  0.8527160844661585  0.5479517454530508  0.6743766257787813  1.0000
  O   O106      1.0  0.9057808398975047  0.46294649568168034  0.6977965399154771  1.0000
  O   O107      1.0  0.6389048595847099  0.5269449813380536  0.04903032252982589  1.0000
  O   O108      1.0  0.6797100336200739  0.4303771936448749  0.049829256743328124  1.0000
  O   O109      1.0  0.396355352856271  0.037137263164932786  0.19197680924606875  1.0000
  O   O110      1.0  0.3646345825436404  0.9403570752214588  0.1600999966308353  1.0000
  O   O111      1.0  0.4624997581409555  0.37265028327951355  0.926309289226591  1.0000
  O   O112      1.0  0.5545895792027058  0.4160120714742725  0.9569948411820665  1.0000
