data_image0
_chemical_formula_structural       Al16H80C128O80
_chemical_formula_sum              "Al16 H80 C128 O80"
_cell_length_a       21.63717
_cell_length_b       21.63649
_cell_length_c       10.288049999999998
_cell_angle_alpha    90.00093999999999
_cell_angle_beta     89.99906
_cell_angle_gamma    90.00852000000002

_space_group_name_H-M_alt    "P 1"
_space_group_IT_number       1

loop_
  _space_group_symop_operation_xyz
  'x, y, z'

loop_
  _atom_site_type_symbol
  _atom_site_label
  _atom_site_symmetry_multiplicity
  _atom_site_fract_x
  _atom_site_fract_y
  _atom_site_fract_z
  _atom_site_occupancy
  Al  Al1       1.0  0.6895918578839898  0.9960984015913664  0.04276306589862986  1.0000
  Al  Al2       1.0  0.33160477732645915  0.001024311509560727  0.9987335520333293  1.0000
  Al  Al3       1.0  0.76973595556999  0.9325711057057914  0.788448224122452  1.0000
  Al  Al4       1.0  0.26705457967341073  0.931231629537851  0.7439334103216589  1.0000
  Al  Al5       1.0  0.7528457118363638  0.07498994809348905  0.2821973630358839  1.0000
  Al  Al6       1.0  0.24967961961544582  0.06898878049666106  0.2336598986831264  1.0000
  Al  Al7       1.0  0.1857067602842954  0.008017349468405278  0.5116665598842017  1.0000
  Al  Al8       1.0  0.8249780517811994  0.003996144577212093  0.5288004647590263  1.0000
  Al  Al9       1.0  0.2508816849108268  0.5775461281071665  0.7143043844049852  1.0000
  Al  Al10      1.0  0.17776035661962455  0.504677562219351  0.4731967633623621  1.0000
  Al  Al11      1.0  0.24293178070198718  0.4305810437452615  0.2273868906770059  1.0000
  Al  Al12      1.0  0.7517010971023119  0.5642894258201397  0.7310540745840158  1.0000
  Al  Al13      1.0  0.6736008084048949  0.4932954785822113  0.967536369857273  1.0000
  Al  Al14      1.0  0.7472578100874371  0.43586553906628467  0.233068894556821  1.0000
  Al  Al15      1.0  0.3068051249488219  0.505014774386925  0.9704616929270578  1.0000
  Al  Al16      1.0  0.8220462351868028  0.5007404813240468  0.480956355318222  1.0000
  H   H1        1.0  0.743322344206966  0.47124170412302746  0.6392810573208713  1.0000
  H   H2        1.0  0.7207341050829966  0.5195001450176473  0.39563732982396166  1.0000
  H   H3        1.0  0.23872123176604626  0.007844117635651088  0.8906106660121064  1.0000
  H   H4        1.0  0.2435541780782828  0.4783729165633813  0.6417398371680539  1.0000
  H   H5        1.0  0.27937399552788983  0.49403088548745316  0.4016040902903786  1.0000
  H   H6        1.0  0.7716139492970474  0.48134799693195035  0.8824695129245396  1.0000
  H   H7        1.0  0.7657390653105611  0.5242404695574044  0.10957329234435852  1.0000
  H   H8        1.0  0.2054528929806406  0.5119360684778916  0.8769398547273779  1.0000
  H   H9        1.0  0.720117347307213  0.01596968494959161  0.4722974014811027  1.0000
  H   H10       1.0  0.7493373847415202  0.9717647623251824  0.2280728126935104  1.0000
  H   H11       1.0  0.7935019908811359  0.9974716498907636  0.9772882113428528  1.0000
  H   H12       1.0  0.7729633064935995  0.03128356097455112  0.7315448896560031  1.0000
  H   H13       1.0  0.2502594336600858  0.9647944466589581  0.15297551823946678  1.0000
  H   H14       1.0  0.2641051605633918  0.031217512301574404  0.664163241998132  1.0000
  H   H15       1.0  0.2861917476883997  0.00318476099939069  0.40666553342236306  1.0000
  H   H16       1.0  0.23815640054507803  0.532721974445725  0.1583620618521936  1.0000
  H   H17       1.0  0.6220368955408317  0.9118443448393883  0.544143517139456  1.0000
  H   H18       1.0  0.4253395574659345  0.9191075036699297  0.5132221987083041  1.0000
  H   H19       1.0  0.5099231247808323  0.984661852627824  0.8612871168379492  1.0000
  H   H20       1.0  0.5290351745056887  0.9016586588890179  0.41556113754798746  1.0000
  H   H21       1.0  0.5978002348792931  0.0941951136497574  0.49159278496518605  1.0000
  H   H22       1.0  0.3946309587733156  0.08121895364643131  0.47385743666797675  1.0000
  H   H23       1.0  0.49972726280288465  0.0123079607377991  0.16476778402672965  1.0000
  H   H24       1.0  0.49631445000307656  0.10306686655766414  0.6067904891286525  1.0000
  H   H25       1.0  0.11706797639126765  0.900758213327485  0.9778858124433193  1.0000
  H   H26       1.0  0.9223608821599311  0.9051011118712401  0.018356351574841057  1.0000
  H   H27       1.0  0.0089543259839866  0.9837690787343077  0.6647187019736899  1.0000
  H   H28       1.0  0.01555673062423124  0.8733356373010817  0.09524790997941444  1.0000
  H   H29       1.0  0.09392533419890658  0.07087817089667874  0.020436334393454783  1.0000
  H   H30       1.0  0.8941973597423819  0.09329000936245878  0.06910548550904531  1.0000
  H   H31       1.0  0.0009521814765460854  0.019006414802839575  0.37087382652950224  1.0000
  H   H32       1.0  0.9933799327499149  0.10164101573747208  0.9186702040273463  1.0000
  H   H33       1.0  0.14889376375117794  0.8672181361701647  0.29955631638934366  1.0000
  H   H34       1.0  0.16056659578991128  0.6728477266650478  0.2339308722884987  1.0000
  H   H35       1.0  0.24386804146864394  0.7580420092806709  0.5680322365825129  1.0000
  H   H36       1.0  0.12763522439973327  0.7746117323724167  0.15978785585630007  1.0000
  H   H37       1.0  0.18007940475091985  0.16062515964618088  0.7073409404074076  1.0000
  H   H38       1.0  0.14893583442656583  0.36192923106530456  0.6774174553851875  1.0000
  H   H39       1.0  0.2184410461864274  0.2583299472293373  0.3530905216224269  1.0000
  H   H40       1.0  0.14074631089063108  0.26067752429627744  0.8153233899774399  1.0000
  H   H41       1.0  0.6658685642205844  0.8359644326006358  0.2369397797110259  1.0000
  H   H42       1.0  0.6416458794747804  0.6399108204489927  0.17974737297132792  1.0000
  H   H43       1.0  0.7346012782604208  0.750716052099991  0.8847658023094433  1.0000
  H   H44       1.0  0.6461014489586577  0.7288996141436379  0.328262168332081  1.0000
  H   H45       1.0  0.6800975735982134  0.1408645858591106  0.8066383281801076  1.0000
  H   H46       1.0  0.6613401648662883  0.3354281544357119  0.772029330352937  1.0000
  H   H47       1.0  0.7095318397834846  0.2537079386194662  0.14035281519710707  1.0000
  H   H48       1.0  0.652231235803935  0.2379669832932147  0.6722939888376702  1.0000
  H   H49       1.0  0.34422432046075346  0.850032265575963  0.21053642629875596  1.0000
  H   H50       1.0  0.3291365754045678  0.6525275061427109  0.2086688002661093  1.0000
  H   H51       1.0  0.2631916565465717  0.759828794347934  0.8675482644818014  1.0000
  H   H52       1.0  0.36452133410761756  0.7485131911740901  0.31213641563408207  1.0000
  H   H53       1.0  0.3298802210000132  0.14974676987969246  0.7650626136263183  1.0000
  H   H54       1.0  0.3239483651784058  0.34944165787203313  0.7621551228960001  1.0000
  H   H55       1.0  0.2821396803538825  0.251429802504067  0.11351771913183731  1.0000
  H   H56       1.0  0.3378782318638307  0.24849781160017187  0.6409411036857895  1.0000
  H   H57       1.0  0.8569849500849239  0.857222420736875  0.31149846189146163  1.0000
  H   H58       1.0  0.8387606778404754  0.6574242058096617  0.28381743292322753  1.0000
  H   H59       1.0  0.7631272856352898  0.7494771528899891  0.6081622145774788  1.0000
  H   H60       1.0  0.8657121890654875  0.7597723080597647  0.1764255442468177  1.0000
  H   H61       1.0  0.8478879734017191  0.15897705863456268  0.7361942848293229  1.0000
  H   H62       1.0  0.8424050937935491  0.3572891708485285  0.7486103588214182  1.0000
  H   H63       1.0  0.7737630591407226  0.25025369609965614  0.40828747149658423  1.0000
  H   H64       1.0  0.8638809763348538  0.26079965052327003  0.8535006694527246  1.0000
  H   H65       1.0  0.09394722243491685  0.37842097284325077  0.039251747426254445  1.0000
  H   H66       1.0  0.8976053684642868  0.38843287621282674  0.036791127580237684  1.0000
  H   H67       1.0  0.00036536763788186377  0.4826221799107351  0.3321487610304797  1.0000
  H   H68       1.0  0.9942614841391832  0.34048723343183096  0.9474299758091347  1.0000
  H   H69       1.0  0.10406609422539681  0.5959715721138892  0.9362185110484617  1.0000
  H   H70       1.0  0.9010636289115876  0.5839812100644546  0.9540797354835542  1.0000
  H   H71       1.0  0.0017852201972455952  0.5118207334432515  0.6273849263696282  1.0000
  H   H72       1.0  0.9973024120263925  0.6150693173049038  0.06717190334280841  1.0000
  H   H73       1.0  0.5914578652653529  0.41477042848857454  0.4289427025711988  1.0000
  H   H74       1.0  0.39175790018288864  0.4124855722671765  0.44678894457521434  1.0000
  H   H75       1.0  0.4844698892564592  0.48309299743286105  0.10412593545796292  1.0000
  H   H76       1.0  0.4943299474577018  0.3927322728347813  0.5543909478992571  1.0000
  H   H77       1.0  0.5975007905034458  0.5694342787174342  0.48797176154383554  1.0000
  H   H78       1.0  0.3977565756899518  0.5849472684321625  0.514240303208459  1.0000
  H   H79       1.0  0.4982444011377822  0.5254983894858909  0.8413845094385776  1.0000
  H   H80       1.0  0.5008902766699826  0.5722400666448245  0.37462704993047635  1.0000
  C   C1        1.0  0.5763175736620912  0.9276881382709554  0.587603361339312  1.0000
  C   C2        1.0  0.5756254948646429  0.9517716539084877  0.7139916604193062  1.0000
  C   C3        1.0  0.6317334831503355  0.9575602925844645  0.792631821598318  1.0000
  C   C4        1.0  0.515592859786626  0.9637496309322435  0.7670086257477007  1.0000
  C   C5        1.0  0.5230592178346586  0.9164836480238299  0.5176911019516178  1.0000
  C   C6        1.0  0.4652098056313699  0.928240273216355  0.5693651675075853  1.0000
  C   C7        1.0  0.4626717830635971  0.9492254290783122  0.699548408292811  1.0000
  C   C8        1.0  0.4001159425413757  0.9591060685190698  0.7655829095037139  1.0000
  C   C9        1.0  0.5525757608531855  0.08016071141170385  0.4451348167274122  1.0000
  C   C10       1.0  0.5549799779859711  0.04928386021649641  0.32659643478640304  1.0000
  C   C11       1.0  0.6203427318389518  0.043564225988588993  0.2598904681372626  1.0000
  C   C12       1.0  0.5025539303925  0.02987819393124231  0.2662161090524519  1.0000
  C   C13       1.0  0.4951528436877066  0.08443372325134103  0.5103564914063438  1.0000
  C   C14       1.0  0.4415451059244162  0.0695772264001856  0.43663119456154564  1.0000
  C   C15       1.0  0.4449146574256479  0.048343868929151955  0.3111790447034732  1.0000
  C   C16       1.0  0.38636265200365855  0.04469121150804213  0.2323999310504372  1.0000
  C   C17       1.0  0.07204529784737077  0.9100331134558369  0.9310840560240191  1.0000
  C   C18       1.0  0.07213839268306882  0.9483442796932334  0.8185348877840108  1.0000
  C   C19       1.0  0.1310075049637408  0.9604688902138886  0.7410965714641636  1.0000
  C   C20       1.0  0.012675085277790155  0.963443530829937  0.7652207232778497  1.0000
  C   C21       1.0  0.019310350220182126  0.8931016599720341  0.9944874648503318  1.0000
  C   C22       1.0  0.9631151015761787  0.9139897092415618  0.9534481765387834  1.0000
  C   C23       1.0  0.9603451478218852  0.9433420703899443  0.8274802156182233  1.0000
  C   C24       1.0  0.9010725982515119  0.9581317465666013  0.7632900405920788  1.0000
  C   C25       1.0  0.049277280731674665  0.06328069902757487  0.07262649386434576  1.0000
  C   C26       1.0  0.053183494566248206  0.04483862335547259  0.20386813444379193  1.0000
  C   C27       1.0  0.11803586019074648  0.040541992683543665  0.2708529168063837  1.0000
  C   C28       1.0  0.9996297717689336  0.03440517373808161  0.2689551081832477  1.0000
  C   C29       1.0  0.9946136571268211  0.08003750271156719  0.016934522095721438  1.0000
  C   C30       1.0  0.9414731930931959  0.07939891658065307  0.09170102694426004  1.0000
  C   C31       1.0  0.9423165822870482  0.05023203153216999  0.21459800745468402  1.0000
  C   C32       1.0  0.8835337867584582  0.04267851678204293  0.289114063481464  1.0000
  C   C33       1.0  0.16212022007287522  0.8211850447519345  0.33018455984508127  1.0000
  C   C34       1.0  0.1933111738749801  0.8172021608229132  0.44882913294965343  1.0000
  C   C35       1.0  0.21254714863106178  0.8722055894212658  0.5252071365763338  1.0000
  C   C36       1.0  0.21084206250879522  0.7587332141430185  0.4931154836305518  1.0000
  C   C37       1.0  0.1522804914031717  0.7699120012147705  0.2534994970574471  1.0000
  C   C38       1.0  0.16820147876100913  0.7090999655385486  0.2992608415422329  1.0000
  C   C39       1.0  0.1986120246869208  0.7048739865250084  0.42036861029678924  1.0000
  C   C40       1.0  0.21023431683092098  0.6419643240839815  0.47626247941238986  1.0000
  C   C41       1.0  0.16928186108090582  0.20333058735342857  0.6550738324379951  1.0000
  C   C42       1.0  0.18718938477031444  0.19922872105015998  0.5203378085682583  1.0000
  C   C43       1.0  0.20010103204926416  0.13816054267474656  0.47254181708956855  1.0000
  C   C44       1.0  0.19833622050493638  0.25427141000037995  0.44831834130289683  1.0000
  C   C45       1.0  0.152833762378838  0.260448398990802  0.712650015500812  1.0000
  C   C46       1.0  0.1590994773417232  0.3150072013715194  0.6359683129223533  1.0000
  C   C47       1.0  0.1860528631100832  0.31041924929921927  0.5107145126057927  1.0000
  C   C48       1.0  0.2015887205337536  0.3677305433218922  0.4445638047279001  1.0000
  C   C49       1.0  0.6727281348100207  0.7926700974975793  0.17342915037156473  1.0000
  C   C50       1.0  0.701190573847167  0.799969419036223  0.05287882933562791  1.0000
  C   C51       1.0  0.7158264611080143  0.8640919277230453  0.9990218586385186  1.0000
  C   C52       1.0  0.7150176312866983  0.746224534498602  0.9810875037267854  1.0000
  C   C53       1.0  0.6566145186146943  0.7362210084534853  0.22446499294049704  1.0000
  C   C54       1.0  0.6627344921898732  0.6835633431129032  0.14703644231969154  1.0000
  C   C55       1.0  0.6933570288582263  0.6877103057040289  0.028784687096164652  1.0000
  C   C56       1.0  0.7059963952205116  0.6281626510529769  0.9614603518316897  1.0000
  C   C57       1.0  0.6794190335950567  0.18763367456110983  0.8463915710308  1.0000
  C   C58       1.0  0.6954607622615939  0.1912545163409906  0.9784482241735847  1.0000
  C   C59       1.0  0.7066676019976942  0.13457016861903262  0.05685790506047537  1.0000
  C   C60       1.0  0.6984691149219044  0.24922677057105083  0.03762451097187239  1.0000
  C   C61       1.0  0.6572717315805611  0.2382308089968408  0.7795585093538989  1.0000
  C   C62       1.0  0.6657836191518606  0.29743297860908474  0.8378456424997701  1.0000
  C   C63       1.0  0.6905177337557965  0.3020227874349354  0.9596841473998569  1.0000
  C   C64       1.0  0.7047455573503818  0.3649261028813546  0.007575389896139125  1.0000
  C   C65       1.0  0.3350134306126898  0.8079992553294086  0.15883145887119132  1.0000
  C   C66       1.0  0.30578024145799876  0.8091082279330386  0.03916197725598423  1.0000
  C   C67       1.0  0.2984447079740919  0.8677373571735529  0.9690208419168791  1.0000
  C   C68       1.0  0.29059647789536147  0.7569158203166154  0.9585476113212853  1.0000
  C   C69       1.0  0.3454835440587931  0.7488780708812659  0.21742322797828392  1.0000
  C   C70       1.0  0.3227832404479512  0.6949987446201438  0.1543107372560634  1.0000
  C   C71       1.0  0.29831125821680937  0.7012008573103751  0.021743382862661177  1.0000
  C   C72       1.0  0.29015079024179546  0.6391340068901316  0.9447399188977231  1.0000
  C   C73       1.0  0.3252619859468904  0.19220887223707783  0.8140836914919708  1.0000
  C   C74       1.0  0.3057299663522772  0.19183922150684685  0.947204949686534  1.0000
  C   C75       1.0  0.2949931543099038  0.13457210684902618  0.017787965654254195  1.0000
  C   C76       1.0  0.294781228281101  0.2474798051335442  0.01048681917652374  1.0000
  C   C77       1.0  0.32880871491573627  0.24764802048666662  0.7461384404299987  1.0000
  C   C78       1.0  0.31952372238858945  0.3041961048104172  0.8084005960544743  1.0000
  C   C79       1.0  0.30137471800530286  0.3038864378310966  0.9390794292990456  1.0000
  C   C80       1.0  0.2839896610556879  0.3664118086142241  0.0015721103614730423  1.0000
  C   C81       1.0  0.8369970015441703  0.8138467337766978  0.34286352525010017  1.0000
  C   C82       1.0  0.8075183306908482  0.8098911394020615  0.46719756720598554  1.0000
  C   C83       1.0  0.8016519222047521  0.8692056320895761  0.5423550518807382  1.0000
  C   C84       1.0  0.7843087753495195  0.7519001135815535  0.5132010178236799  1.0000
  C   C85       1.0  0.8456463270929144  0.758748524633132  0.27259890171167034  1.0000
  C   C86       1.0  0.8307965325269908  0.7025919131339025  0.33019669042376565  1.0000
  C   C87       1.0  0.7992187383925324  0.6992930098626864  0.4458222074381789  1.0000
  C   C88       1.0  0.795702923910371  0.6373701193666682  0.5134550270869225  1.0000
  C   C89       1.0  0.8379793199712967  0.2032949696482439  0.6924513247813923  1.0000
  C   C90       1.0  0.8163666423963168  0.20037469124853632  0.5674602700775305  1.0000
  C   C91       1.0  0.8037787351283581  0.13681114037390407  0.503597067607012  1.0000
  C   C92       1.0  0.796699769908563  0.254056723030865  0.5055445153746057  1.0000
  C   C93       1.0  0.8427554785222624  0.2599570100906166  0.7537084755698901  1.0000
  C   C94       1.0  0.8293035214738783  0.3169285598410394  0.6890778536173389  1.0000
  C   C95       1.0  0.8056642946031991  0.312207904799064  0.5599342792414793  1.0000
  C   C96       1.0  0.7927711689261202  0.3708491460534548  0.4768938400688552  1.0000
  C   C97       1.0  0.052196004884860224  0.3949691697450287  0.08003604669705118  1.0000
  C   C98       1.0  0.051592104329689005  0.4391807305299929  0.18350881075695435  1.0000
  C   C99       1.0  0.11195670730780598  0.4556544019991352  0.2452175340009952  1.0000
  C   C100      1.0  0.9968824925953301  0.45568598651291586  0.24366510180983184  1.0000
  C   C101      1.0  0.9966626869429107  0.37280936564714723  0.028102056276729476  1.0000
  C   C102      1.0  0.9425519405275757  0.39674203929818597  0.08278509632332742  1.0000
  C   C103      1.0  0.9408972394703646  0.43401760729811856  0.19326849310949173  1.0000
  C   C104      1.0  0.8783684308168134  0.45100314674507497  0.2538884667845652  1.0000
  C   C105      1.0  0.05810450662721124  0.5879334107210038  0.9003888455531344  1.0000
  C   C106      1.0  0.058323473935055554  0.5551541428509613  0.7835753473369103  1.0000
  C   C107      1.0  0.11657429205921138  0.5500066843160496  0.7082389998066606  1.0000
  C   C108      1.0  0.0010723426227071046  0.5359860266997746  0.7207124870111878  1.0000
  C   C109      1.0  0.0034925629602794786  0.5972669056270163  0.9674477284498609  1.0000
  C   C110      1.0  0.9472343925793816  0.5784082694897099  0.908147001862783  1.0000
  C   C111      1.0  0.9458370980333215  0.5501762754195182  0.7850702904995251  1.0000
  C   C112      1.0  0.8874116649697279  0.5388413198680078  0.7162173805515142  1.0000
  C   C113      1.0  0.5475031779079648  0.42281760649188443  0.3927050326434348  1.0000
  C   C114      1.0  0.5475571476914359  0.4451349772348415  0.26313510244687255  1.0000
  C   C115      1.0  0.6111669012219145  0.4542066505911392  0.20860663299435495  1.0000
  C   C116      1.0  0.4915918469991407  0.46150313184062125  0.1991367324761596  1.0000
  C   C117      1.0  0.4927796845352324  0.4116904044444636  0.46088898491707103  1.0000
  C   C118      1.0  0.4369709791603373  0.425351518312343  0.40074689675006986  1.0000
  C   C119      1.0  0.4379492594924223  0.444664505659625  0.2644184515755756  1.0000
  C   C120      1.0  0.37986514351798684  0.457142788586854  0.1990646566211434  1.0000
  C   C121      1.0  0.5547677085180177  0.5663398692933178  0.5453436862680395  1.0000
  C   C122      1.0  0.5550662541236229  0.5517013412011891  0.6766935786542225  1.0000
  C   C123      1.0  0.6154838534403346  0.5428160460847675  0.7538627322074868  1.0000
  C   C124      1.0  0.4992011490250844  0.5422661239078383  0.7430454014178862  1.0000
  C   C125      1.0  0.4981075595919969  0.5721259234754043  0.48426384216064183  1.0000
  C   C126      1.0  0.44186250771803975  0.5717551976501061  0.556344664104506  1.0000
  C   C127      1.0  0.44187615778978334  0.5514211578138406  0.6856115329822723  1.0000
  C   C128      1.0  0.3831114868964308  0.5456012908268563  0.7574141525456298  1.0000
  O   O1        1.0  0.7577132900482882  0.9924983817207835  0.9200177655189535  1.0000
  O   O2        1.0  0.6319602070778624  0.9919326053190713  0.8902993835046475  1.0000
  O   O3        1.0  0.6766730161095674  0.927503632546853  0.7438817163660363  1.0000
  O   O4        1.0  0.39811787253140735  0.9926581130477101  0.8695040286942047  1.0000
  O   O5        1.0  0.3543763919295169  0.9357114217231811  0.7040413345531265  1.0000
  O   O6        1.0  0.7464328870393995  0.0061502963120411685  0.16978493013448484  1.0000
  O   O7        1.0  0.625350109737388  0.006513039710577918  0.16240071738080997  1.0000
  O   O8        1.0  0.6883390672253283  0.08400899634724468  0.006741180572351846  1.0000
  O   O9        1.0  0.6886060143587575  0.9097543749298037  0.05349555456555073  1.0000
  O   O10       1.0  0.6640270676457538  0.07472719924953747  0.3151866642242858  1.0000
  O   O11       1.0  0.3942288753213968  0.014334478726262206  0.1271153114877889  1.0000
  O   O12       1.0  0.341396739358715  0.07079987668199847  0.2790142243449937  1.0000
  O   O13       1.0  0.25178540426151935  0.9939779318004871  0.6271203193740622  1.0000
  O   O14       1.0  0.12390940797087123  0.9939810862110489  0.6445435443825176  1.0000
  O   O15       1.0  0.18071321555188685  0.9364805872880155  0.7781865535407176  1.0000
  O   O16       1.0  0.8984204189526747  0.998221923485085  0.6719328086333556  1.0000
  O   O17       1.0  0.8539410342423632  0.9272607009445805  0.8083091277975886  1.0000
  O   O18       1.0  0.24671035078761272  0.01140201286296767  0.3751122964058865  1.0000
  O   O19       1.0  0.12102654965364548  0.016414807470857454  0.3867808643106213  1.0000
  O   O20       1.0  0.1837223421741504  0.0936322106597822  0.547501353659428  1.0000
  O   O21       1.0  0.18289976314633385  0.9215273638853924  0.4860879166942074  1.0000
  O   O22       1.0  0.15984732399165083  0.059518937760180815  0.19878583313168016  1.0000
  O   O23       1.0  0.8842346084116723  0.003225647842199795  0.38140488635416847  1.0000
  O   O24       1.0  0.8368578438626157  0.07381043851688075  0.251106900792205  1.0000
  O   O25       1.0  0.25515244073022025  0.8687877823972608  0.6132800056082544  1.0000
  O   O26       1.0  0.2449985009054592  0.6392419503135178  0.5773979715882653  1.0000
  O   O27       1.0  0.18137369701854808  0.5935568989854377  0.43995392627544666  1.0000
  O   O28       1.0  0.2793693524314145  0.9947762949823326  0.8667293454444459  1.0000
  O   O29       1.0  0.26584842624242644  0.8691020856015806  0.8654585516590814  1.0000
  O   O30       1.0  0.22827121907804812  0.13086517930351865  0.36004655994059787  1.0000
  O   O31       1.0  0.2411997644959085  0.3679031880405512  0.35257421775517994  1.0000
  O   O32       1.0  0.17237870655348692  0.41535719126577014  0.4898974403658991  1.0000
  O   O33       1.0  0.2630412972814454  0.005394279180937467  0.11706609710529432  1.0000
  O   O34       1.0  0.25663975173615405  0.13499580831236563  0.11367690284502306  1.0000
  O   O35       1.0  0.7521419428108754  0.8635742224636812  0.9052532484296238  1.0000
  O   O36       1.0  0.7430280142915477  0.628161983341706  0.8644185761532391  1.0000
  O   O37       1.0  0.6717378720710638  0.5817243425446651  0.9936660144519577  1.0000
  O   O38       1.0  0.7705438855195583  0.9983554022698801  0.6717690302690928  1.0000
  O   O39       1.0  0.7726247796371288  0.8714946346386347  0.6519191471469308  1.0000
  O   O40       1.0  0.7407600367064289  0.14087557954348398  0.15877031608901498  1.0000
  O   O41       1.0  0.73357889034434  0.3686829912658193  0.11344698561088865  1.0000
  O   O42       1.0  0.684627898826253  0.40908220593388844  0.9375946950681555  1.0000
  O   O43       1.0  0.759189629608817  0.01922650647450518  0.4233217705174508  1.0000
  O   O44       1.0  0.76729482319538  0.135686009491764  0.40735000521263387  1.0000
  O   O45       1.0  0.3280471257990053  0.9124394720652859  0.017863512526616714  1.0000
  O   O46       1.0  0.26320264114575853  0.6420235496672271  0.8353116666727654  1.0000
  O   O47       1.0  0.30923776359363464  0.5920695495976276  0.003244463237346534  1.0000
  O   O48       1.0  0.32591890474312346  0.08928318029618942  0.9731257655915662  1.0000
  O   O49       1.0  0.2544427132978632  0.3632890110138393  0.10770817018756845  1.0000
  O   O50       1.0  0.30342068285150664  0.414705630119909  0.945652340591098  1.0000
  O   O51       1.0  0.8252242488281241  0.9170529912443136  0.49291509288589613  1.0000
  O   O52       1.0  0.7602769380793716  0.632306974374266  0.6136271734389861  1.0000
  O   O53       1.0  0.8289852859990757  0.5944801765267349  0.46919676238928404  1.0000
  O   O54       1.0  0.8327536914573518  0.09097931104701494  0.5524473356495713  1.0000
  O   O55       1.0  0.7581570627704991  0.3689447176604911  0.37417247690631156  1.0000
  O   O56       1.0  0.823491492513798  0.4178223772831813  0.5076267321217798  1.0000
  O   O57       1.0  0.2418173182674753  0.4924105315430551  0.3511688882705944  1.0000
  O   O58       1.0  0.11601857578166258  0.49560499727550417  0.3385778229049652  1.0000
  O   O59       1.0  0.16058247378618587  0.4237637757017098  0.20854243618347457  1.0000
  O   O60       1.0  0.8821456508167712  0.4881276465697016  0.35012082668429745  1.0000
  O   O61       1.0  0.8308000378149746  0.42560616224731684  0.21534273458976422  1.0000
  O   O62       1.0  0.23877058198604936  0.5180493251178181  0.5988831325331953  1.0000
  O   O63       1.0  0.11530497236551882  0.5175404550107281  0.6044954176616247  1.0000
  O   O64       1.0  0.1615171526470586  0.5780879220170217  0.7677429719067914  1.0000
  O   O65       1.0  0.8869502987191954  0.5079740360864451  0.6115758031593238  1.0000
  O   O66       1.0  0.837685521337749  0.5622504658946746  0.7663372730616369  1.0000
  O   O67       1.0  0.7387253782324016  0.4868438271955529  0.09310302051970745  1.0000
  O   O68       1.0  0.6124591377311179  0.47810838459331834  0.09615810384535795  1.0000
  O   O69       1.0  0.6584732921789925  0.43147204732107175  0.27028612620937364  1.0000
  O   O70       1.0  0.3783574693834142  0.4922410354499047  0.09725759111486423  1.0000
  O   O71       1.0  0.33234864547102483  0.4302908211589058  0.2426864702904759  1.0000
  O   O72       1.0  0.7370768718518225  0.4973884091766177  0.8412000041143898  1.0000
  O   O73       1.0  0.6094843808450275  0.5028408463541485  0.8449399713589457  1.0000
  O   O74       1.0  0.6631837313743878  0.5662468486365683  0.7021892498524176  1.0000
  O   O75       1.0  0.3782362339191837  0.50988593570751  0.8594791639212152  1.0000
  O   O76       1.0  0.3364069504133651  0.5795998567421088  0.7179697991347104  1.0000
  O   O77       1.0  0.7566035045796606  0.5013396616224198  0.3541407420240489  1.0000
  O   O78       1.0  0.758517410695483  0.5093650273173047  0.5955622330421163  1.0000
  O   O79       1.0  0.24744673035901607  0.4971223753129178  0.1095232051072107  1.0000
  O   O80       1.0  0.24802920469404774  0.5100983833192517  0.8391580525292347  1.0000
