data_image0
_chemical_formula_structural       Al16H80C128O80
_chemical_formula_sum              "Al16 H80 C128 O80"
_cell_length_a       21.63717
_cell_length_b       21.63649
_cell_length_c       10.288049999999998
_cell_angle_alpha    90.00093999999999
_cell_angle_beta     89.99906
_cell_angle_gamma    90.00852000000002

_space_group_name_H-M_alt    "P 1"
_space_group_IT_number       1

loop_
  _space_group_symop_operation_xyz
  'x, y, z'

loop_
  _atom_site_type_symbol
  _atom_site_label
  _atom_site_symmetry_multiplicity
  _atom_site_fract_x
  _atom_site_fract_y
  _atom_site_fract_z
  _atom_site_occupancy
  Al  Al1       1.0  0.6784219732532185  0.9981122390278764  0.9974510767339722  1.0000
  Al  Al2       1.0  0.32283258961264855  0.994458959253597  0.014514022583500784  1.0000
  Al  Al3       1.0  0.7509993980038893  0.9269169011218914  0.7515347089177045  1.0000
  Al  Al4       1.0  0.2525033749074139  0.9312014321152351  0.7556883026513566  1.0000
  Al  Al5       1.0  0.7480361771109016  0.06691811385882702  0.24244443414167513  1.0000
  Al  Al6       1.0  0.2546678272368925  0.0746559043223551  0.25046838620472067  1.0000
  Al  Al7       1.0  0.18678450232328692  0.010947861379373125  0.5089464836785523  1.0000
  Al  Al8       1.0  0.8206011318656102  0.996737888117665  0.4974451845954565  1.0000
  Al  Al9       1.0  0.2594304913738852  0.5714747891745204  0.7160663344348625  1.0000
  Al  Al10      1.0  0.18570236643597743  0.5070439898522763  0.47057323703742543  1.0000
  Al  Al11      1.0  0.24465931753604786  0.4347982435525927  0.2181457526551664  1.0000
  Al  Al12      1.0  0.7592808260092405  0.5637053641986828  0.7798608309795555  1.0000
  Al  Al13      1.0  0.68052458741323  0.4998643504905013  0.02317569802481199  1.0000
  Al  Al14      1.0  0.7378107705284204  0.4246041248942197  0.2726962330815868  1.0000
  Al  Al15      1.0  0.3244936159315083  0.5001995945777943  0.9659663784590637  1.0000
  Al  Al16      1.0  0.8214687054211136  0.4925695570115084  0.516448876262256  1.0000
  H   H1        1.0  0.7290520127707513  0.4849302618464091  0.6255280603935548  1.0000
  H   H2        1.0  0.7433422536312767  0.5209623979969253  0.3757371534003345  1.0000
  H   H3        1.0  0.22689132788425898  0.0008180752095473417  0.9250082292136108  1.0000
  H   H4        1.0  0.2574297015628527  0.4716368200760324  0.6237696610851468  1.0000
  H   H5        1.0  0.27974380894570366  0.5037410837872904  0.38647084929311476  1.0000
  H   H6        1.0  0.7570781360380187  0.46927308370021725  0.8571290324573801  1.0000
  H   H7        1.0  0.7769973027276835  0.5013030332332193  0.132824034716759  1.0000
  H   H8        1.0  0.2272474874234324  0.5004300124027151  0.8746617446864754  1.0000
  H   H9        1.0  0.7642686983069328  0.9713955527479241  0.2841919800921309  1.0000
  H   H10       1.0  0.7804656217738503  0.014585134235406416  0.0287881065974316  1.0000
  H   H11       1.0  0.7383909051862922  0.03221699036422977  0.8179711249716646  1.0000
  H   H12       1.0  0.7170809454214854  0.9838947109775723  0.5649920112717477  1.0000
  H   H13       1.0  0.24270856581489994  0.9764232269147994  0.177062367551697  1.0000
  H   H14       1.0  0.2637058008494077  0.033303789554790596  0.662719948079071  1.0000
  H   H15       1.0  0.2827104823218131  0.9868526119093229  0.41504090387868764  1.0000
  H   H16       1.0  0.23503652981450046  0.5313372091151416  0.11616706570454402  1.0000
  H   H17       1.0  0.5930080638229172  0.9147110797704585  0.5124478226115565  1.0000
  H   H18       1.0  0.39745796738264505  0.9012470949678096  0.5371612493608846  1.0000
  H   H19       1.0  0.5087182531141912  0.9712515246793955  0.8677853657790013  1.0000
  H   H20       1.0  0.4997244993071927  0.8927097326895747  0.41473106576545354  1.0000
  H   H21       1.0  0.5989953953573737  0.06541487460533829  0.4792238744297352  1.0000
  H   H22       1.0  0.40160520799575  0.07368002687548023  0.4805420902241422  1.0000
  H   H23       1.0  0.5015483458180806  0.01719587719267451  0.1338622246558509  1.0000
  H   H24       1.0  0.49791285061004953  0.08818391912162571  0.6026437518935611  1.0000
  H   H25       1.0  0.10553090736635723  0.9230947348437512  0.9789469435617468  1.0000
  H   H26       1.0  0.9087132756727025  0.906490287427611  0.957635802960855  1.0000
  H   H27       1.0  0.004675666628388031  0.9918446928829233  0.6413889825356435  1.0000
  H   H28       1.0  0.00819754354298885  0.8910909290584665  0.06881007773003783  1.0000
  H   H29       1.0  0.0999496095605512  0.11581690748644988  0.07017564554937979  1.0000
  H   H30       1.0  0.9024563763840301  0.09259992437765234  0.042282398522272745  1.0000
  H   H31       1.0  0.006603024401022588  0.017189108646573366  0.3732082300371119  1.0000
  H   H32       1.0  0.9988622572144733  0.11817314813517722  0.940318175223048  1.0000
  H   H33       1.0  0.14696518687995558  0.8570435476665134  0.2986083554052287  1.0000
  H   H34       1.0  0.1691835896628687  0.6606528636980291  0.2644607977928002  1.0000
  H   H35       1.0  0.23220148987172748  0.7552089172865774  0.6068685437648775  1.0000
  H   H36       1.0  0.14073278154875032  0.7577170511386335  0.16466143734292712  1.0000
  H   H37       1.0  0.15378218965362636  0.157373217215131  0.7045612085818724  1.0000
  H   H38       1.0  0.15875796319193375  0.3541430844477474  0.702710131846716  1.0000
  H   H39       1.0  0.22618139398831522  0.26331003791199287  0.376384104960814  1.0000
  H   H40       1.0  0.13368059226753815  0.26366118455161885  0.8175428776360483  1.0000
  H   H41       1.0  0.652283435439959  0.8523345672819092  0.18112978266061086  1.0000
  H   H42       1.0  0.6607775863424036  0.6544671182386536  0.2326508736489563  1.0000
  H   H43       1.0  0.7457012527162037  0.7496072358143484  0.9015219164463685  1.0000
  H   H44       1.0  0.637783955131215  0.7549878988052177  0.3346259175379674  1.0000
  H   H45       1.0  0.6344419662994688  0.1569577372443304  0.7812484632328826  1.0000
  H   H46       1.0  0.6379789426695901  0.3525686234673514  0.8103241617452832  1.0000
  H   H47       1.0  0.721399358253717  0.2541895072689776  0.12527328700257548  1.0000
  H   H48       1.0  0.6112156243798877  0.2546894911153359  0.6964065077374385  1.0000
  H   H49       1.0  0.3197385572361667  0.836837169419866  0.2331548739212524  1.0000
  H   H50       1.0  0.3115917754160224  0.6397953888974781  0.21604956824647825  1.0000
  H   H51       1.0  0.26240089888035334  0.7530276558126794  0.8840550991147691  1.0000
  H   H52       1.0  0.33489211900223514  0.7352965440768109  0.33921844770769977  1.0000
  H   H53       1.0  0.3507404454163546  0.1527634483831236  0.7788901115523863  1.0000
  H   H54       1.0  0.3565785868564602  0.34961512706210274  0.7692322930127466  1.0000
  H   H55       1.0  0.2687226734110406  0.24847622718239873  0.09412821091077654  1.0000
  H   H56       1.0  0.37257242863163637  0.2512641090486697  0.6553188963714595  1.0000
  H   H57       1.0  0.8285982497209481  0.8387392018971866  0.26981143081021497  1.0000
  H   H58       1.0  0.8281580170192842  0.6411953635183778  0.2911054359967136  1.0000
  H   H59       1.0  0.7834948005294671  0.7473188218729768  0.6286233233450927  1.0000
  H   H60       1.0  0.8354883982345862  0.7285038842212371  0.16616125509305008  1.0000
  H   H61       1.0  0.8112186952494755  0.13378447261600537  0.744552593743368  1.0000
  H   H62       1.0  0.8153496980230571  0.3341309447649699  0.7558896508174869  1.0000
  H   H63       1.0  0.7815334085695761  0.24736433334879873  0.40089494910211027  1.0000
  H   H64       1.0  0.8224751165103821  0.23485888840449154  0.8705426365939405  1.0000
  H   H65       1.0  0.0969382438195684  0.4302844964718077  0.0027976516451364364  1.0000
  H   H66       1.0  0.8909896207015835  0.41167005737135065  0.032715591398815164  1.0000
  H   H67       1.0  0.0003583306134016251  0.46505196987209263  0.3586382191953741  1.0000
  H   H68       1.0  0.9919423609599044  0.4126213247139015  0.8912408281907257  1.0000
  H   H69       1.0  0.11304004402093361  0.632366996283535  0.8807105488832617  1.0000
  H   H70       1.0  0.9210507273092857  0.6167429708360771  0.956399459824554  1.0000
  H   H71       1.0  0.0007782988400230254  0.5179503945581142  0.6332508854207838  1.0000
  H   H72       1.0  0.0211504124038974  0.669009801816657  0.005077398536560173  1.0000
  H   H73       1.0  0.586069018765  0.4064825296129166  0.4921729434987864  1.0000
  H   H74       1.0  0.3894531696908283  0.41830282281448894  0.4437782059018665  1.0000
  H   H75       1.0  0.4963964714572967  0.4889554065041715  0.15256019755176115  1.0000
  H   H76       1.0  0.48292080538247245  0.3774243366159842  0.5657367928389118  1.0000
  H   H77       1.0  0.6164155024626913  0.5797816180774725  0.5339070544445487  1.0000
  H   H78       1.0  0.41677613521918794  0.5942290304937161  0.5296455043926147  1.0000
  H   H79       1.0  0.5039312591435673  0.5109538611062923  0.8611795269642317  1.0000
  H   H80       1.0  0.5124384943945011  0.6121537729026897  0.41893074209008524  1.0000
  C   C1        1.0  0.5513356840800103  0.9147628279835434  0.5767378076114351  1.0000
  C   C2        1.0  0.5573297094844873  0.9357555068743495  0.7007107305991  1.0000
  C   C3        1.0  0.6172082131054556  0.952053906867586  0.7626002189055677  1.0000
  C   C4        1.0  0.5022055664021341  0.9520620492848555  0.7641605729089328  1.0000
  C   C5        1.0  0.4950532628029091  0.9054753948184984  0.5155711812663694  1.0000
  C   C6        1.0  0.4398891920010229  0.9142188975554477  0.581447775974054  1.0000
  C   C7        1.0  0.44353846644055517  0.9403085660835697  0.7111334822409425  1.0000
  C   C8        1.0  0.38682068929217794  0.9502777764942311  0.7928402867594105  1.0000
  C   C9        1.0  0.5560407791968996  0.060647847001223866  0.42764849035376373  1.0000
  C   C10       1.0  0.5587337358942251  0.042423033301638796  0.30010170448538814  1.0000
  C   C11       1.0  0.6161265663866516  0.03551203548354542  0.22056035309030086  1.0000
  C   C12       1.0  0.5003193229574052  0.027996487010739722  0.23787721294692535  1.0000
  C   C13       1.0  0.5019666193583018  0.07018201103183423  0.496872910938001  1.0000
  C   C14       1.0  0.44585229673236054  0.06605228027413138  0.43271582770282696  1.0000
  C   C15       1.0  0.44462195269541316  0.044214672650477835  0.3022137140504512  1.0000
  C   C16       1.0  0.38525815780669087  0.03379536241072913  0.2296894271155317  1.0000
  C   C17       1.0  0.0613279097919945  0.9349851585397191  0.9236651185168588  1.0000
  C   C18       1.0  0.06174135848465736  0.9614015856805935  0.8025792402080196  1.0000
  C   C19       1.0  0.12076358997480545  0.968849637560451  0.7437283996538874  1.0000
  C   C20       1.0  0.004320325772352307  0.9739931651325758  0.7433826373373202  1.0000
  C   C21       1.0  0.006120952104053057  0.9172559908800408  0.9857376658092867  1.0000
  C   C22       1.0  0.9516047624866798  0.9225233462856013  0.9197350958195663  1.0000
  C   C23       1.0  0.9474232526538879  0.9558490429121349  0.8024325476860737  1.0000
  C   C24       1.0  0.8859782785881767  0.9544865043173664  0.7243795298434207  1.0000
  C   C25       1.0  0.058209789058246426  0.09327472151869742  0.10367925119794896  1.0000
  C   C26       1.0  0.05888761338344284  0.05843845033408264  0.21321368972646215  1.0000
  C   C27       1.0  0.11879792389880597  0.052251106001462495  0.28584691178517113  1.0000
  C   C28       1.0  0.0032775995241504066  0.039845263829426006  0.2715241703482948  1.0000
  C   C29       1.0  0.003738088845113807  0.10031863179003778  0.03389124081763165  1.0000
  C   C30       1.0  0.9475185458203479  0.08052587578737487  0.08625747349972276  1.0000
  C   C31       1.0  0.9458706891561607  0.05037224081934861  0.20569080735119874  1.0000
  C   C32       1.0  0.8870200762996956  0.040296704255092186  0.2754714392681512  1.0000
  C   C33       1.0  0.16571561448173652  0.8129938105724328  0.3306914702898598  1.0000
  C   C34       1.0  0.19437166464466613  0.814327656765538  0.45423554718898634  1.0000
  C   C35       1.0  0.20734716680108728  0.8731763806456521  0.5204334583755846  1.0000
  C   C36       1.0  0.21289266816094563  0.7580002282504212  0.5074448074615668  1.0000
  C   C37       1.0  0.15846665969974297  0.7597757859697003  0.2582555363470276  1.0000
  C   C38       1.0  0.17522407669267742  0.7057413980295454  0.3154877562680486  1.0000
  C   C39       1.0  0.20193427059676386  0.702256058963255  0.43854285809402194  1.0000
  C   C40       1.0  0.21595199239725132  0.6401915146764198  0.49781598955859596  1.0000
  C   C41       1.0  0.16616619354967493  0.20108285195273407  0.6621016025226524  1.0000
  C   C42       1.0  0.19884531074239542  0.2004600409011424  0.5411917672929669  1.0000
  C   C43       1.0  0.2118108109808587  0.1392469655580762  0.4904818611260644  1.0000
  C   C44       1.0  0.2073279189575383  0.25583795346448124  0.47037087118572757  1.0000
  C   C45       1.0  0.14970385074595527  0.25738028387227124  0.716967661703149  1.0000
  C   C46       1.0  0.16051839369358267  0.31035687741596224  0.6526981305307749  1.0000
  C   C47       1.0  0.1921487292629427  0.31168415674490346  0.5289473118292103  1.0000
  C   C48       1.0  0.20249681843487938  0.37069945019240236  0.45909971872911953  1.0000
  C   C49       1.0  0.66757122780389  0.8059020828805934  0.16445942432777272  1.0000
  C   C50       1.0  0.696307338905621  0.8032742660166797  0.04131135153059905  1.0000
  C   C51       1.0  0.7042011308303854  0.8628911809587683  0.9720307077328824  1.0000
  C   C52       1.0  0.7180813385562008  0.7480074660886764  0.9919969316582404  1.0000
  C   C53       1.0  0.6518099593076397  0.754937613567369  0.23344157839885443  1.0000
  C   C54       1.0  0.6694797532529758  0.6988151331966623  0.17358264787599223  1.0000
  C   C55       1.0  0.7058954951057338  0.6930190408619369  0.05470223027215606  1.0000
  C   C56       1.0  0.7187775363500999  0.6309126721558962  0.0029593307552853165  1.0000
  C   C57       1.0  0.64687961921524  0.19691413048241183  0.8452036034370101  1.0000
  C   C58       1.0  0.6811817747642472  0.1945879963140697  0.9668656463252978  1.0000
  C   C59       1.0  0.698547109691281  0.132976423754801  0.027144774770258333  1.0000
  C   C60       1.0  0.6984250476316813  0.25044939797539045  0.029834323324886922  1.0000
  C   C61       1.0  0.636654812971743  0.25510382045972846  0.7847714855752851  1.0000
  C   C62       1.0  0.6518637625174829  0.3094654080814009  0.8506866842944303  1.0000
  C   C63       1.0  0.6828935396535487  0.3068765803277873  0.9685737698282676  1.0000
  C   C64       1.0  0.6946845922530024  0.36359294771956424  0.0435550877105566  1.0000
  C   C65       1.0  0.31426280493430314  0.794771065428319  0.179005780541076  1.0000
  C   C66       1.0  0.2883236282493835  0.7989673533139482  0.052198937616411686  1.0000
  C   C67       1.0  0.28206776864059396  0.8606581142629826  0.988890591777641  1.0000
  C   C68       1.0  0.2741915372884106  0.7450235500458041  0.9833521427989392  1.0000
  C   C69       1.0  0.32302125373000923  0.7382104824515083  0.23610145077577369  1.0000
  C   C70       1.0  0.3094339084183896  0.6844941122203202  0.1688794543638085  1.0000
  C   C71       1.0  0.2853939041082314  0.6878961617133582  0.039756629303908414  1.0000
  C   C72       1.0  0.2890340491532229  0.6308864255535958  0.953870316788993  1.0000
  C   C73       1.0  0.33833991740384756  0.19585148128515573  0.8197329097612871  1.0000
  C   C74       1.0  0.30883741941009235  0.19240704729978295  0.9425650013957648  1.0000
  C   C75       1.0  0.3002617914221669  0.13452061038554458  0.02393447641353491  1.0000
  C   C76       1.0  0.2953976711976552  0.24898296006192175  0.0040648422209509484  1.0000
  C   C77       1.0  0.3541523736338513  0.2488801293974067  0.7556301205857405  1.0000
  C   C78       1.0  0.3427836079824036  0.3067227489548026  0.8190674707323319  1.0000
  C   C79       1.0  0.30931828398732675  0.3060456748440833  0.9401431935695289  1.0000
  C   C80       1.0  0.29838242793729025  0.3662458534200288  0.006739991545400843  1.0000
  C   C81       1.0  0.8167270297793076  0.7964838240848423  0.32201894536783743  1.0000
  C   C82       1.0  0.8000456064274164  0.7991194082307264  0.4504805294732485  1.0000
  C   C83       1.0  0.7931243743450048  0.861295200710914  0.514697533684717  1.0000
  C   C84       1.0  0.790944989281748  0.7461350278752114  0.5257758235482648  1.0000
  C   C85       1.0  0.8284029218104106  0.7380697359273133  0.266139501726456  1.0000
  C   C86       1.0  0.823172352585735  0.6851947682934328  0.34212945222343016  1.0000
  C   C87       1.0  0.8027864320484042  0.6870576096804615  0.468216149930877  1.0000
  C   C88       1.0  0.7962092878788525  0.6270964349150849  0.5421437630552965  1.0000
  C   C89       1.0  0.8062081073179619  0.1792374289354152  0.6959278096361146  1.0000
  C   C90       1.0  0.7970785682440811  0.18633915259826128  0.5630854974032033  1.0000
  C   C91       1.0  0.7888076450505447  0.12817380316295585  0.4851798174914903  1.0000
  C   C92       1.0  0.793303542429689  0.24407453887944863  0.5022547724195161  1.0000
  C   C93       1.0  0.815740534102633  0.23424484663389522  0.7631812512685139  1.0000
  C   C94       1.0  0.8105731625496813  0.29123930254313674  0.7018622277247155  1.0000
  C   C95       1.0  0.7953588093182302  0.2968586563141145  0.5678289628814167  1.0000
  C   C96       1.0  0.7872792885575721  0.3594647665953785  0.5062869106780942  1.0000
  C   C97       1.0  0.050338061786278004  0.433455172561498  0.05216165358298424  1.0000
  C   C98       1.0  0.05249414429452365  0.44793815402981013  0.1875019260714266  1.0000
  C   C99       1.0  0.11264818384148233  0.46078209941015175  0.24381040048163088  1.0000
  C   C100      1.0  0.9976694607509092  0.4517893770367296  0.2577024558311347  1.0000
  C   C101      1.0  0.9935881996368159  0.41705998797088817  0.9969742215474869  1.0000
  C   C102      1.0  0.9387567999074768  0.4205520207098988  0.073179944712809  1.0000
  C   C103      1.0  0.9420211968078546  0.4395936575461832  0.2031883894968018  1.0000
  C   C104      1.0  0.8818476546703143  0.44777804711934005  0.27933838878829415  1.0000
  C   C105      1.0  0.06888336175923536  0.6152771518811723  0.8590028588875772  1.0000
  C   C106      1.0  0.06473185553010842  0.5723088082360359  0.7559147576161581  1.0000
  C   C107      1.0  0.12361409914264507  0.553481116041323  0.6892562985121921  1.0000
  C   C108      1.0  0.00699760756806461  0.5493724580355925  0.7178358310843636  1.0000
  C   C109      1.0  0.018082027787770967  0.6310369575020812  0.9333855776929819  1.0000
  C   C110      1.0  0.9598331233191897  0.6060227681743302  0.8995433811548917  1.0000
  C   C111      1.0  0.9547349504120521  0.5682015278514276  0.78678678585139  1.0000
  C   C112      1.0  0.8931873983779726  0.544166836586523  0.7435811307350536  1.0000
  C   C113      1.0  0.5454622840603286  0.41994200437127244  0.43403054817985026  1.0000
  C   C114      1.0  0.5499284106591092  0.45241256271353997  0.31073889229352003  1.0000
  C   C115      1.0  0.6113477332434881  0.46194474554021736  0.25430501705416475  1.0000
  C   C116      1.0  0.4969341984399501  0.46685195612140085  0.24489229549604036  1.0000
  C   C117      1.0  0.488656682194918  0.4031281502097123  0.48129599694136144  1.0000
  C   C118      1.0  0.43583758585363924  0.42485956145140924  0.41751857457496727  1.0000
  C   C119      1.0  0.4382696546648061  0.45471273972135157  0.29987313736133325  1.0000
  C   C120      1.0  0.3804054003777255  0.46483701520514614  0.21379219780152028  1.0000
  C   C121      1.0  0.5685277388526652  0.5735991285904463  0.5797084483070213  1.0000
  C   C122      1.0  0.563936891304666  0.5475821934365489  0.7098265086158515  1.0000
  C   C123      1.0  0.6221518299176501  0.5383038128184506  0.7798824803689015  1.0000
  C   C124      1.0  0.5088638124391822  0.5379346381271316  0.7716790239293707  1.0000
  C   C125      1.0  0.5143182292498755  0.5895108834400651  0.5135848855149394  1.0000
  C   C126      1.0  0.4571024209645047  0.5786669760999822  0.5775204466929099  1.0000
  C   C127      1.0  0.45337664190597265  0.555628148695238  0.7054924093441722  1.0000
  C   C128      1.0  0.38993248413527526  0.5481879186048816  0.7546613597415881  1.0000
  O   O1        1.0  0.7388463707168494  0.9929557772606961  0.8664150351523233  1.0000
  O   O2        1.0  0.6156408898965746  0.9910849388811971  0.8530503732351473  1.0000
  O   O3        1.0  0.663852763364811  0.9225647888265169  0.7230737566401785  1.0000
  O   O4        1.0  0.39128619656421015  0.9872935484907637  0.8892590677982813  1.0000
  O   O5        1.0  0.3403819274883784  0.9202098166333872  0.7541131372891781  1.0000
  O   O6        1.0  0.7507971877643722  0.012002866963921255  0.1022043050221349  1.0000
  O   O7        1.0  0.6095108132001039  0.0021295268755808913  0.1208002022088211  1.0000
  O   O8        1.0  0.6652296121557907  0.08664063050227064  0.9865082005561175  1.0000
  O   O9        1.0  0.6774393247190573  0.9109218641689166  0.028483754460647402  1.0000
  O   O10       1.0  0.6620749441054257  0.06419336062750335  0.27209933765420724  1.0000
  O   O11       1.0  0.38001815331317906  0.9904687447896935  0.14632612306560874  1.0000
  O   O12       1.0  0.33912936010940264  0.06603654556035898  0.27169596966891196  1.0000
  O   O13       1.0  0.2522318834880606  0.9928901408939171  0.6286205900768829  1.0000
  O   O14       1.0  0.1222498136166149  0.0034386574780551626  0.6442702622735896  1.0000
  O   O15       1.0  0.16764142706435473  0.9392322375443427  0.7879790419157852  1.0000
  O   O16       1.0  0.8839712010967791  0.9884845674365323  0.6193471485572872  1.0000
  O   O17       1.0  0.8392311224359423  0.9291859169910132  0.7818651777707889  1.0000
  O   O18       1.0  0.2471209388382024  0.01678421784477704  0.3840774822306854  1.0000
  O   O19       1.0  0.11717379156708918  0.023847868855874425  0.394759859360421  1.0000
  O   O20       1.0  0.1933449237031836  0.09380038111898205  0.5582171695846683  1.0000
  O   O21       1.0  0.18003438211860218  0.9239737938913828  0.47641613924106735  1.0000
  O   O22       1.0  0.16494286409257103  0.0805262270756487  0.2414506024629069  1.0000
  O   O23       1.0  0.8861954168774023  0.008448476921367439  0.3764742260236246  1.0000
  O   O24       1.0  0.837662675050717  0.0676451480244135  0.2203261328055386  1.0000
  O   O25       1.0  0.24129676656911414  0.8701619992338638  0.6199077815248129  1.0000
  O   O26       1.0  0.2500516631016664  0.6414106166705553  0.5989516187866826  1.0000
  O   O27       1.0  0.19100535780157726  0.5951030926208027  0.44808823841647644  1.0000
  O   O28       1.0  0.2642031739001943  0.9951140877427741  0.8802371705461317  1.0000
  O   O29       1.0  0.25431288984743533  0.864164411981755  0.8779334404897674  1.0000
  O   O30       1.0  0.24804918178896512  0.13732639910744632  0.3882290911372804  1.0000
  O   O31       1.0  0.23759845718138609  0.37479386531979597  0.3600901279637043  1.0000
  O   O32       1.0  0.1794607979604518  0.42162223620983946  0.5131893654697322  1.0000
  O   O33       1.0  0.2524416826046624  0.011944587060043126  0.12654311073044575  1.0000
  O   O34       1.0  0.26536794587699464  0.1371750010099411  0.12991571195315926  1.0000
  O   O35       1.0  0.7436325122543544  0.8670120595525491  0.8831923836339551  1.0000
  O   O36       1.0  0.754339684265264  0.6268667258864226  0.9088322930503158  1.0000
  O   O37       1.0  0.6869760710020932  0.5881682385696495  0.049486547998601714  1.0000
  O   O38       1.0  0.7543517425245562  0.9888991640024589  0.6193729454770214  1.0000
  O   O39       1.0  0.758168719813459  0.8630670314516636  0.6163656690730064  1.0000
  O   O40       1.0  0.7388924363802245  0.13014024282916126  0.11407474111380106  1.0000
  O   O41       1.0  0.7313277191603762  0.3644093924587545  0.1374048561564568  1.0000
  O   O42       1.0  0.669069792390967  0.4163476713415386  0.0076218693328495846  1.0000
  O   O43       1.0  0.7564458781832415  0.00035655211723435655  0.3539681048381412  1.0000
  O   O44       1.0  0.754901059959053  0.12538448628707344  0.38346223638704124  1.0000
  O   O45       1.0  0.30968661992028695  0.9050312681238757  0.042698991559938136  1.0000
  O   O46       1.0  0.2678473347579557  0.6350529086622189  0.8421690847470348  1.0000
  O   O47       1.0  0.31898791648174035  0.5873942095005878  0.010306863791344018  1.0000
  O   O48       1.0  0.3333051199564504  0.08776741956513498  0.9936782026478503  1.0000
  O   O49       1.0  0.25785146763995714  0.3671043239097155  0.09804013008018483  1.0000
  O   O50       1.0  0.32992254327252785  0.4122621546870873  0.9585037040696563  1.0000
  O   O51       1.0  0.8230856148448314  0.9059456142309372  0.4656042691558777  1.0000
  O   O52       1.0  0.7716677355997451  0.6272949849057449  0.649720586680556  1.0000
  O   O53       1.0  0.8153749986524195  0.5790367210207134  0.48391025426002127  1.0000
  O   O54       1.0  0.8164432719654565  0.08088912420025349  0.5381407994216554  1.0000
  O   O55       1.0  0.7503669737326999  0.36125504468232306  0.4061071302262719  1.0000
  O   O56       1.0  0.8132255571956114  0.4063174926164561  0.5583533664344481  1.0000
  O   O57       1.0  0.2417932064377053  0.498214405319669  0.33312889040414273  1.0000
  O   O58       1.0  0.11865716935982985  0.5011137839432503  0.3296085507858723  1.0000
  O   O59       1.0  0.15862124619609963  0.4288759188492382  0.1953455213126741  1.0000
  O   O60       1.0  0.8855721154153152  0.4783950821003522  0.3903462785543188  1.0000
  O   O61       1.0  0.8335175156277391  0.4206373175776186  0.24321151731118965  1.0000
  O   O62       1.0  0.2527606588123089  0.5127320130492161  0.5851470289918991  1.0000
  O   O63       1.0  0.1185075325478258  0.5203820663185096  0.5849054487118005  1.0000
  O   O64       1.0  0.17318548396395894  0.5759859516384845  0.7435634665518459  1.0000
  O   O65       1.0  0.8881156769313652  0.5079035484956529  0.6418312801529008  1.0000
  O   O66       1.0  0.8477097068056888  0.5641456065390881  0.8132741755970984  1.0000
  O   O67       1.0  0.7369577651487995  0.4915346761458505  0.1645960644102352  1.0000
  O   O68       1.0  0.6135098159972765  0.4924015751536403  0.14825055772575602  1.0000
  O   O69       1.0  0.6536316616831248  0.4282521207477783  0.2977311473820923  1.0000
  O   O70       1.0  0.3839057021801859  0.49441688118887217  0.1080067894595225  1.0000
  O   O71       1.0  0.33253745454521116  0.4358343530653181  0.2562045412599432  1.0000
  O   O72       1.0  0.7480412151443923  0.5054063338592442  0.9103821902615745  1.0000
  O   O73       1.0  0.6186063977959725  0.5064172510724725  0.8892276954779595  1.0000
  O   O74       1.0  0.669616744703497  0.5635111855898524  0.7336211626140222  1.0000
  O   O75       1.0  0.3885235887449407  0.5164549962024966  0.85468031088169  1.0000
  O   O76       1.0  0.3477159134619203  0.5757484382429938  0.6939896998869041  1.0000
  O   O77       1.0  0.7534628044068078  0.4803439906913605  0.41026060440373996  1.0000
  O   O78       1.0  0.7675050121813245  0.5006937764040366  0.6575929327540875  1.0000
  O   O79       1.0  0.2472669200538426  0.4916334422844798  0.08432039407209914  1.0000
  O   O80       1.0  0.2676186889855268  0.5065876064801134  0.8298127266389178  1.0000
