data_image0
_chemical_formula_structural       Al16H80C128O80
_chemical_formula_sum              "Al16 H80 C128 O80"
_cell_length_a       21.63717
_cell_length_b       21.63649
_cell_length_c       10.288049999999998
_cell_angle_alpha    90.00093999999999
_cell_angle_beta     89.99906
_cell_angle_gamma    90.00852000000002

_space_group_name_H-M_alt    "P 1"
_space_group_IT_number       1

loop_
  _space_group_symop_operation_xyz
  'x, y, z'

loop_
  _atom_site_type_symbol
  _atom_site_label
  _atom_site_symmetry_multiplicity
  _atom_site_fract_x
  _atom_site_fract_y
  _atom_site_fract_z
  _atom_site_occupancy
  Al  Al1       1.0  0.6876066051636033  0.0027325570222689333  0.011689960685685452  1.0000
  Al  Al2       1.0  0.32626230035337594  0.9992306435723404  0.9794284650583  1.0000
  Al  Al3       1.0  0.7620877150558366  0.9413206040554258  0.7607254165858676  1.0000
  Al  Al4       1.0  0.25967783249950166  0.9281888676368705  0.7284280191111836  1.0000
  Al  Al5       1.0  0.7539748535210659  0.07833806477103558  0.2583306322106954  1.0000
  Al  Al6       1.0  0.2575684865399782  0.061350247046217055  0.22927034672603508  1.0000
  Al  Al7       1.0  0.18902942923983285  0.9927808606702272  0.4755572135940907  1.0000
  Al  Al8       1.0  0.832709067158054  0.007752528958009144  0.5121034978852038  1.0000
  Al  Al9       1.0  0.24820380364741812  0.5702065099895661  0.7130466961158068  1.0000
  Al  Al10      1.0  0.17402891460121253  0.4915053185510326  0.48525367405324926  1.0000
  Al  Al11      1.0  0.234477823936705  0.42186681609648713  0.22444015538624051  1.0000
  Al  Al12      1.0  0.7490821215699075  0.5724780075043344  0.7676960854705737  1.0000
  Al  Al13      1.0  0.673407614062584  0.5073224173772354  0.021444439914208583  1.0000
  Al  Al14      1.0  0.7358813680036678  0.4369641287678948  0.27783517389293866  1.0000
  Al  Al15      1.0  0.31086165818590916  0.497357420639194  0.9704263917766845  1.0000
  Al  Al16      1.0  0.8160968868219428  0.5062921546471645  0.5148089017282538  1.0000
  H   H1        1.0  0.7115765134997861  0.5129576073553164  0.599598738503421  1.0000
  H   H2        1.0  0.7384220645545959  0.5405383780342028  0.35269657135963745  1.0000
  H   H3        1.0  0.2490620937110999  0.03059304188809641  0.7975009746461241  1.0000
  H   H4        1.0  0.2611219414231934  0.46709281489210913  0.6340111188957479  1.0000
  H   H5        1.0  0.27183859578180164  0.4882463156652677  0.39493356769197857  1.0000
  H   H6        1.0  0.7396539843312572  0.47003598460291335  0.8398121201126748  1.0000
  H   H7        1.0  0.7684005573697399  0.5223903820723619  0.12291206694566113  1.0000
  H   H8        1.0  0.20738563292322412  0.5045954077569661  0.8789514157137231  1.0000
  H   H9        1.0  0.767341083255464  0.9771149381903298  0.3438297229263046  1.0000
  H   H10       1.0  0.788138755572823  0.019175872343546674  0.09591279205151176  1.0000
  H   H11       1.0  0.7539650885211164  0.04484193133624048  0.8524936136935877  1.0000
  H   H12       1.0  0.7305076997338995  0.011386416048016264  0.5921028136176794  1.0000
  H   H13       1.0  0.22672640452571358  0.006292301869807337  0.0507565709867789  1.0000
  H   H14       1.0  0.2857874088733915  0.9989671778153967  0.5569001619881222  1.0000
  H   H15       1.0  0.26294549704657155  0.9588818578553119  0.3075301433071831  1.0000
  H   H16       1.0  0.22540194618730106  0.529274114095752  0.12817060865323054  1.0000
  H   H17       1.0  0.6206616215900629  0.8874433353556962  0.5657014586404876  1.0000
  H   H18       1.0  0.42202414179836273  0.8789534944292537  0.5564204646692592  1.0000
  H   H19       1.0  0.5082481908333228  0.9714007544106792  0.8701410726434239  1.0000
  H   H20       1.0  0.5224815434512757  0.8511878159676505  0.4522040271238987  1.0000
  H   H21       1.0  0.6032629250773798  0.07556974391101148  0.49490133809324827  1.0000
  H   H22       1.0  0.40683207753273676  0.08346043742709187  0.47670683572881817  1.0000
  H   H23       1.0  0.5166182681112529  0.026395918950386663  0.14553128439334326  1.0000
  H   H24       1.0  0.5031139414712643  0.08700340343573548  0.6114398852739737  1.0000
  H   H25       1.0  0.11060198847045757  0.8886215062954649  0.9286007467470546  1.0000
  H   H26       1.0  0.9178510353172036  0.9137709511214311  0.9746744098928952  1.0000
  H   H27       1.0  0.00423010441795002  0.9879324246344151  0.6373483703680133  1.0000
  H   H28       1.0  0.015963758755826785  0.8706345454465149  0.05177680611421556  1.0000
  H   H29       1.0  0.09709457640511597  0.0829344628710621  0.0027063369644872532  1.0000
  H   H30       1.0  0.8994926200379759  0.0775490432913938  0.03633013545818576  1.0000
  H   H31       1.0  0.010363690223941749  0.011921992638905905  0.3523411123561349  1.0000
  H   H32       1.0  0.9986379872532188  0.10657935465737395  0.9159413593961911  1.0000
  H   H33       1.0  0.16087540319182136  0.8469821195770652  0.2674055502005114  1.0000
  H   H34       1.0  0.12977789724692726  0.6528566370524489  0.27466459929340054  1.0000
  H   H35       1.0  0.23685903749533072  0.7404115808775685  0.5740548025708854  1.0000
  H   H36       1.0  0.11462172431506011  0.749393923558394  0.17109259388063894  1.0000
  H   H37       1.0  0.16000437884339883  0.1424830027300502  0.7179929211063244  1.0000
  H   H38       1.0  0.15599068745432146  0.34106190606665604  0.7192298736875643  1.0000
  H   H39       1.0  0.22495881197628612  0.24945923069077597  0.37633302433813604  1.0000
  H   H40       1.0  0.12419101072439333  0.23850740053738756  0.8096603459588282  1.0000
  H   H41       1.0  0.6938051510421238  0.8564842801715513  0.24583908327434836  1.0000
  H   H42       1.0  0.6789112350227363  0.6571212645820801  0.2336592970141997  1.0000
  H   H43       1.0  0.738462553854757  0.7591325214192869  0.8994151566613914  1.0000
  H   H44       1.0  0.6828705421206689  0.7583732133624803  0.3630313986620528  1.0000
  H   H45       1.0  0.65880809727076  0.15569835595293566  0.7982522326592636  1.0000
  H   H46       1.0  0.6113194868788037  0.35534750894597034  0.8345429641487566  1.0000
  H   H47       1.0  0.7247962536863246  0.26470778125815625  0.12442871101370115  1.0000
  H   H48       1.0  0.6042471470444725  0.25121829913396715  0.709562563553305  1.0000
  H   H49       1.0  0.33597924254894185  0.8458705361003187  0.19935386691860507  1.0000
  H   H50       1.0  0.33841628984348227  0.6454780960607442  0.18823134612692977  1.0000
  H   H51       1.0  0.29145504125794114  0.7559413016093112  0.846709200708035  1.0000
  H   H52       1.0  0.34662422219602507  0.7455681745371003  0.31147091148102657  1.0000
  H   H53       1.0  0.32617295143941244  0.14401008401603788  0.745538330593668  1.0000
  H   H54       1.0  0.3337720296473517  0.3463030514500775  0.7403153728889076  1.0000
  H   H55       1.0  0.2576273625780574  0.24362069719483817  0.0709898999515507  1.0000
  H   H56       1.0  0.3519843589788912  0.24410668488673531  0.6319451394335835  1.0000
  H   H57       1.0  0.8530232439394468  0.8571031729134334  0.3116506831579233  1.0000
  H   H58       1.0  0.871721275151041  0.658390844659698  0.3301643499899527  1.0000
  H   H59       1.0  0.7593748360402502  0.76170439780771  0.6145586026216378  1.0000
  H   H60       1.0  0.8890049795774494  0.7604124206952091  0.21340363339902652  1.0000
  H   H61       1.0  0.8482815363567293  0.15475493975388008  0.7028221802913008  1.0000
  H   H62       1.0  0.8338926061009166  0.3552179952198482  0.7418535934461812  1.0000
  H   H63       1.0  0.7577572075703043  0.2586101554617485  0.40797593335273163  1.0000
  H   H64       1.0  0.8559110346543535  0.24823766257721522  0.8447690050436116  1.0000
  H   H65       1.0  0.0754216111210662  0.4113801428597929  0.010717931972499642  1.0000
  H   H66       1.0  0.8760265213601904  0.42692700594753163  0.0362214200067347  1.0000
  H   H67       1.0  0.9930134116326017  0.47625098481916556  0.3584144314026807  1.0000
  H   H68       1.0  0.9710985433843882  0.40589725988108655  0.902973909778829  1.0000
  H   H69       1.0  0.10714183476557762  0.5875125420334512  0.967103958736363  1.0000
  H   H70       1.0  0.9104918406112621  0.5914085260611687  0.982797833673154  1.0000
  H   H71       1.0  0.9991283048129985  0.5179913454231285  0.6350461488579725  1.0000
  H   H72       1.0  0.013424283402871154  0.5959588399229534  0.09266230532088744  1.0000
  H   H73       1.0  0.5789804913441323  0.4302115999878065  0.505731708282933  1.0000
  H   H74       1.0  0.37969468000412165  0.4420624136365161  0.4690418943627456  1.0000
  H   H75       1.0  0.4949010149250249  0.4917711241783113  0.1467331963206111  1.0000
  H   H76       1.0  0.4721017728888188  0.4400768669850492  0.6110185167929528  1.0000
  H   H77       1.0  0.6016733174928321  0.6115596195925272  0.5420510778525364  1.0000
  H   H78       1.0  0.40349679577108655  0.5934327434475578  0.5169262573015512  1.0000
  H   H79       1.0  0.49939402577061837  0.5362794623440158  0.8732193829168502  1.0000
  H   H80       1.0  0.5030050111564699  0.6270451289055494  0.4245106838686973  1.0000
  C   C1        1.0  0.5753939816806837  0.9016251467816805  0.6029593811917152  1.0000
  C   C2        1.0  0.5707506258427584  0.933586576599116  0.7244857326710016  1.0000
  C   C3        1.0  0.6271387637686395  0.9485554359865459  0.7847652336616554  1.0000
  C   C4        1.0  0.512309947205169  0.9464902909577841  0.7757627764394486  1.0000
  C   C5        1.0  0.5240990217006317  0.8814223595352614  0.5381377949650277  1.0000
  C   C6        1.0  0.46543408288592397  0.8972079400466345  0.5957996133037458  1.0000
  C   C7        1.0  0.45945140377066557  0.9328863977071654  0.7053260075478687  1.0000
  C   C8        1.0  0.39720358597739186  0.952945551816148  0.759677752548183  1.0000
  C   C9        1.0  0.5618482177109473  0.06889481686233807  0.44245610696147836  1.0000
  C   C10       1.0  0.5647239674515458  0.04856330828764799  0.31021575233974374  1.0000
  C   C11       1.0  0.6228336542365313  0.04620741322075646  0.2322982042897506  1.0000
  C   C12       1.0  0.5086475537304711  0.038500250885384744  0.24385916190873663  1.0000
  C   C13       1.0  0.5048249865614008  0.07724360347416666  0.50607271168017  1.0000
  C   C14       1.0  0.449970400003822  0.07042252199473786  0.43159140179090844  1.0000
  C   C15       1.0  0.44867610969606464  0.05666416347588745  0.2971223371603607  1.0000
  C   C16       1.0  0.3910037518968067  0.04491792584853654  0.21434195601629588  1.0000
  C   C17       1.0  0.06840549916200214  0.9038746898142813  0.8884792105850914  1.0000
  C   C18       1.0  0.06668793307608271  0.9365222310716524  0.7747218930842081  1.0000
  C   C19       1.0  0.12408513156542005  0.9494157765263909  0.6998483067187352  1.0000
  C   C20       1.0  0.010164506299519704  0.9619610872877584  0.7282779576320486  1.0000
  C   C21       1.0  0.015091278109333306  0.8970768297863116  0.9623769900675592  1.0000
  C   C22       1.0  0.9578567481023634  0.9187519762341293  0.916893793531196  1.0000
  C   C23       1.0  0.956326291072035  0.9517806766403097  0.7980762051321337  1.0000
  C   C24       1.0  0.8949317877094263  0.9671690826182612  0.7365597136521816  1.0000
  C   C25       1.0  0.05524357945210905  0.07265888264864259  0.06073926547481496  1.0000
  C   C26       1.0  0.06077106493452851  0.04349148460350851  0.1877873863871123  1.0000
  C   C27       1.0  0.1211901005224846  0.03800366871677305  0.24928097167978278  1.0000
  C   C28       1.0  0.007027009573782302  0.029487342090599836  0.252517212756465  1.0000
  C   C29       1.0  0.9991917252195764  0.08785451299412185  0.010611630000765999  1.0000
  C   C30       1.0  0.9457893295094689  0.07024048074478176  0.07343154438434021  1.0000
  C   C31       1.0  0.9487162920711296  0.04736574080118625  0.19575455120669022  1.0000
  C   C32       1.0  0.89014584448255  0.03936641146136552  0.269009626775221  1.0000
  C   C33       1.0  0.1713065514120896  0.8029589985251943  0.30605250760322644  1.0000
  C   C34       1.0  0.20486575362624126  0.8003812962090756  0.4224902971087579  1.0000
  C   C35       1.0  0.2213920771283573  0.8595498498674495  0.4965912044920973  1.0000
  C   C36       1.0  0.215912464109762  0.7448458019245697  0.478466014582427  1.0000
  C   C37       1.0  0.14788807058338704  0.7494955082125286  0.2516519554917359  1.0000
  C   C38       1.0  0.15397826636527778  0.6938552369489566  0.3129248799205293  1.0000
  C   C39       1.0  0.196529236013613  0.6887535151807592  0.41744627029959924  1.0000
  C   C40       1.0  0.2023616462743821  0.6302818377330452  0.49133514430435016  1.0000
  C   C41       1.0  0.16688215456755268  0.1852828382334342  0.6615975905863384  1.0000
  C   C42       1.0  0.1996034906128174  0.18806011997918648  0.5383352978932353  1.0000
  C   C43       1.0  0.21120453415772628  0.12593526033127428  0.47351213702412237  1.0000
  C   C44       1.0  0.20953593527367492  0.24583989395004924  0.4805490633628827  1.0000
  C   C45       1.0  0.1544401494218776  0.2411643936509122  0.7274988683000413  1.0000
  C   C46       1.0  0.16329627378480677  0.2976708223756506  0.6614087336114478  1.0000
  C   C47       1.0  0.18915166053804006  0.2990430546508508  0.5354889470290889  1.0000
  C   C48       1.0  0.1918261136597679  0.35818407748066505  0.4562345538039945  1.0000
  C   C49       1.0  0.7057724615286106  0.8130379178216977  0.1970476252103722  1.0000
  C   C50       1.0  0.7227937252143518  0.8109597817927434  0.0677000228602546  1.0000
  C   C51       1.0  0.7309567471336053  0.8736488600053455  0.0001327183255415143  1.0000
  C   C52       1.0  0.7276287870307864  0.7556250951405533  0.9997177767184198  1.0000
  C   C53       1.0  0.6934919920437702  0.7569559670669948  0.26315703177264965  1.0000
  C   C54       1.0  0.6945217493240933  0.7011862970433342  0.1951058442115069  1.0000
  C   C55       1.0  0.709592411303879  0.7007880733335696  0.0639550663320137  1.0000
  C   C56       1.0  0.7101456223122812  0.6381963349713158  0.9998539259401261  1.0000
  C   C57       1.0  0.6611344628031459  0.20230165040109999  0.8517190461125452  1.0000
  C   C58       1.0  0.6934066659642271  0.2033251414673533  0.9682382776795194  1.0000
  C   C59       1.0  0.7158579432558273  0.13887906988028215  0.026507517952711338  1.0000
  C   C60       1.0  0.698567190776993  0.2583052665409137  0.03848427545614107  1.0000
  C   C61       1.0  0.6296401784353265  0.2555136234433554  0.800284841366028  1.0000
  C   C62       1.0  0.6347398740553102  0.3102993441134952  0.8664391961935378  1.0000
  C   C63       1.0  0.6730371993215688  0.3126544062156303  0.9765771407316127  1.0000
  C   C64       1.0  0.6814815262270966  0.3723066495070424  0.043611399645292134  1.0000
  C   C65       1.0  0.3304449103173104  0.8031061560491101  0.14868414815360195  1.0000
  C   C66       1.0  0.3145835679163122  0.8035240172504361  0.020275834590241893  1.0000
  C   C67       1.0  0.30815833015986055  0.8681694797671717  0.956494725691289  1.0000
  C   C68       1.0  0.30229061371670607  0.7493594792471607  0.9469562426914582  1.0000
  C   C69       1.0  0.3380232340628975  0.7453806007451484  0.2052949451614644  1.0000
  C   C70       1.0  0.3325151607192202  0.6903707641107921  0.13627995785181068  1.0000
  C   C71       1.0  0.3092663415287229  0.6928996596691555  0.00534293379355593  1.0000
  C   C72       1.0  0.2933768645138353  0.6342916933685709  0.9390696266639471  1.0000
  C   C73       1.0  0.3176713616799627  0.18859901237194776  0.7882128238278722  1.0000
  C   C74       1.0  0.29113733296542016  0.18909462841936345  0.9131910869920316  1.0000
  C   C75       1.0  0.2909506737726611  0.1292508868948278  0.9866134981811846  1.0000
  C   C76       1.0  0.2784110784876917  0.2472078511233328  0.9778362848099139  1.0000
  C   C77       1.0  0.3325869526920513  0.24576744264923003  0.7263879551529361  1.0000
  C   C78       1.0  0.3206623883412587  0.30335783180675735  0.785200651452316  1.0000
  C   C79       1.0  0.29711974751293646  0.30212011977770065  0.9163700217764466  1.0000
  C   C80       1.0  0.2848172541660152  0.36255668484824355  0.9869011853523003  1.0000
  C   C81       1.0  0.841334609922668  0.8119861368458952  0.35467638677708596  1.0000
  C   C82       1.0  0.8122731397609935  0.8109344807543659  0.4744532813617379  1.0000
  C   C83       1.0  0.7982431736047996  0.872789848186195  0.5380583105146002  1.0000
  C   C84       1.0  0.7921739334074939  0.7572193332277551  0.5378595284324224  1.0000
  C   C85       1.0  0.8661637000912511  0.7567460509604826  0.30672327903239494  1.0000
  C   C86       1.0  0.8518420755437465  0.6992157469293662  0.3730055026008571  1.0000
  C   C87       1.0  0.8080166097811414  0.701347861738624  0.4782441134446395  1.0000
  C   C88       1.0  0.7937575977069374  0.6414083647845494  0.5431752636800852  1.0000
  C   C89       1.0  0.836443959375158  0.20154992615388562  0.6701968713075449  1.0000
  C   C90       1.0  0.8087471704366442  0.2025738629563346  0.5498385983274138  1.0000
  C   C91       1.0  0.8053740940336909  0.14282848701481965  0.4766891929296435  1.0000
  C   C92       1.0  0.7880598320498702  0.25995782260878253  0.49695604039404284  1.0000
  C   C93       1.0  0.8415852707684002  0.2532089937391998  0.7455508567769618  1.0000
  C   C94       1.0  0.825669682319202  0.31025872311495  0.6932018353253805  1.0000
  C   C95       1.0  0.8024283314542996  0.31226671488546287  0.5658825046113471  1.0000
  C   C96       1.0  0.7873212480578416  0.3717398838641647  0.5025484928039246  1.0000
  C   C97       1.0  0.03307117762809619  0.42296112623501225  0.0660517056374025  1.0000
  C   C98       1.0  0.03986930402107283  0.44312852499212785  0.1951492392183469  1.0000
  C   C99       1.0  0.10326862889058426  0.45270823697007867  0.2535163117113462  1.0000
  C   C100      1.0  0.9881020049799749  0.4612420166274029  0.26167086967156  1.0000
  C   C101      1.0  0.9747431777487239  0.41785231110150856  0.0032037354026147077  1.0000
  C   C102      1.0  0.9213967440423539  0.4338076934975268  0.07702289065597998  1.0000
  C   C103      1.0  0.9308025224855767  0.4567317958319104  0.20439445770247142  1.0000
  C   C104      1.0  0.8732012406460472  0.45861249028643825  0.28407079580547456  1.0000
  C   C105      1.0  0.061146512712163696  0.5795950271350067  0.9180404889694157  1.0000
  C   C106      1.0  0.056566979432602665  0.5540911714453223  0.7873088138354535  1.0000
  C   C107      1.0  0.11219121474833611  0.5433005966399814  0.7135877383931575  1.0000
  C   C108      1.0  0.9981426193894837  0.5354362120193418  0.7360613344645436  1.0000
  C   C109      1.0  0.009969200928942832  0.5817733634731864  0.9928908960151862  1.0000
  C   C110      1.0  0.9526289266366628  0.5762269674538756  0.9318540289539847  1.0000
  C   C111      1.0  0.9456434554125416  0.5545839099306109  0.801714883016677  1.0000
  C   C112      1.0  0.8830568152446564  0.5466633663968156  0.7470871284712336  1.0000
  C   C113      1.0  0.5365197160122682  0.44327399853578825  0.4495129729389511  1.0000
  C   C114      1.0  0.5427126841252146  0.45997180150337197  0.3121176151811243  1.0000
  C   C115      1.0  0.6030826964390527  0.47183488480630054  0.2491318229100535  1.0000
  C   C116      1.0  0.4893654768217474  0.4724326521127311  0.24247275534929738  1.0000
  C   C117      1.0  0.47838708761944365  0.4406323853172608  0.5027397963065834  1.0000
  C   C118      1.0  0.4253352412346545  0.4465962362258043  0.4214957208768429  1.0000
  C   C119      1.0  0.43138334316961446  0.45632642868354945  0.2860945767946419  1.0000
  C   C120      1.0  0.3752364794450891  0.45737070007516645  0.2036544632426808  1.0000
  C   C121      1.0  0.5567449861792362  0.5974764224912634  0.5892781607429538  1.0000
  C   C122      1.0  0.5568264164767482  0.565246713443166  0.7113449363066388  1.0000
  C   C123      1.0  0.6133941365729368  0.5569325432637553  0.7827002786890692  1.0000
  C   C124      1.0  0.5009646655124947  0.5525053415056541  0.7753792538087205  1.0000
  C   C125      1.0  0.5003481492253499  0.605512321424668  0.5202162014609506  1.0000
  C   C126      1.0  0.44440840136760384  0.5869863642610836  0.5758421247558425  1.0000
  C   C127      1.0  0.4426184372862134  0.5594169588622631  0.703491862106791  1.0000
  C   C128      1.0  0.37977856129252646  0.5415888251946511  0.7489313788398755  1.0000
  O   O1        1.0  0.7447198712041079  0.00381359881934884  0.8797769482492656  1.0000
  O   O2        1.0  0.622682838952288  0.9785410821247339  0.8903913737263373  1.0000
  O   O3        1.0  0.6764435145834649  0.92448803946997  0.7409264789781754  1.0000
  O   O4        1.0  0.39759187644283034  0.9894966868993911  0.8588707609681109  1.0000
  O   O5        1.0  0.3499731999800478  0.928780121424333  0.7039942566326138  1.0000
  O   O6        1.0  0.748325299867969  0.015389746513136649  0.13654082847362167  1.0000
  O   O7        1.0  0.6232909475666052  0.019747728762671828  0.12041346419714048  1.0000
  O   O8        1.0  0.6878805494220748  0.09498332027581757  0.9680908785124851  1.0000
  O   O9        1.0  0.7007108785264783  0.9169190175929328  0.053836985643446474  1.0000
  O   O10       1.0  0.6647551355723786  0.07978639507578239  0.28395143790963123  1.0000
  O   O11       1.0  0.3930923363473544  0.007766754234164303  0.11850123884779883  1.0000
  O   O12       1.0  0.3443910104990285  0.07158572250923723  0.25866122449989654  1.0000
  O   O13       1.0  0.24894962502543774  0.9924577321970988  0.6068363656553146  1.0000
  O   O14       1.0  0.12733876690027518  0.9794776423682435  0.5972330209955794  1.0000
  O   O15       1.0  0.16979444732053456  0.9219245007417728  0.7508253879091591  1.0000
  O   O16       1.0  0.896972660402243  0.9978567063819874  0.6297069086701058  1.0000
  O   O17       1.0  0.8460550545012151  0.9442230124372398  0.7973405807910743  1.0000
  O   O18       1.0  0.2552942366536717  0.9975500855138892  0.35328117582808566  1.0000
  O   O19       1.0  0.12456578879331649  0.010308381869905826  0.358842108173418  1.0000
  O   O20       1.0  0.18602154015216188  0.07730415955230296  0.5224328557351947  1.0000
  O   O21       1.0  0.1961052783110902  0.9079640374279081  0.44405217910385897  1.0000
  O   O22       1.0  0.1677319341501054  0.06490944815444595  0.20052171894141146  1.0000
  O   O23       1.0  0.8898028276213159  0.006779525095020049  0.3727464710058787  1.0000
  O   O24       1.0  0.8455579570528272  0.07027970095409994  0.22114081683237122  1.0000
  O   O25       1.0  0.2554511246658271  0.8596598681646821  0.6003456050137964  1.0000
  O   O26       1.0  0.23674750654880877  0.632346540770379  0.5899720590037438  1.0000
  O   O27       1.0  0.17398234912296387  0.5830954493497967  0.4519950254179798  1.0000
  O   O28       1.0  0.26163231347270133  0.9938054902843  0.8546655325709273  1.0000
  O   O29       1.0  0.27178823090405346  0.8673839061977783  0.857215697082867  1.0000
  O   O30       1.0  0.24561527156609178  0.1261436077964007  0.37027655979755075  1.0000
  O   O31       1.0  0.22479771314785435  0.35866443704769463  0.35084835522488717  1.0000
  O   O32       1.0  0.1703009511446292  0.4046161910305383  0.5145380525390731  1.0000
  O   O33       1.0  0.26267147352589026  0.0051747996597807456  0.10630291457509665  1.0000
  O   O34       1.0  0.2567998223852975  0.1255114223312569  0.08766288754843862  1.0000
  O   O35       1.0  0.761855900968995  0.8791734485254188  0.8972831957935979  1.0000
  O   O36       1.0  0.7415701740940407  0.632760968818028  0.8942960339885649  1.0000
  O   O37       1.0  0.6762586422652029  0.5943318404164603  0.04983169795422553  1.0000
  O   O38       1.0  0.7707524734491299  0.00803276799038799  0.6338713343884421  1.0000
  O   O39       1.0  0.7666031261210097  0.8763757265592855  0.6449588125821424  1.0000
  O   O40       1.0  0.7453730752177417  0.13810658154587913  0.1344352652224876  1.0000
  O   O41       1.0  0.7186286310880245  0.36965619494796637  0.14314274040234273  1.0000
  O   O42       1.0  0.657435321549331  0.4229624784496856  0.9921933916288418  1.0000
  O   O43       1.0  0.7654767255930802  0.018307662882717065  0.38622823480342316  1.0000
  O   O44       1.0  0.7699312305722561  0.1446975502786625  0.37061158635758185  1.0000
  O   O45       1.0  0.33135480449032895  0.9150648651614112  0.014787234708320985  1.0000
  O   O46       1.0  0.2623217776815212  0.6374256679567704  0.8309827821891183  1.0000
  O   O47       1.0  0.3122147882319525  0.5849649292048247  0.9973403774274655  1.0000
  O   O48       1.0  0.32754350959538286  0.08671482726175732  0.9478585788972987  1.0000
  O   O49       1.0  0.24959499454869413  0.36114280797903936  0.0878577631565995  1.0000
  O   O50       1.0  0.30616155048806926  0.4123375113335716  0.9341101853690728  1.0000
  O   O51       1.0  0.8264944345665246  0.9197190721990132  0.48463879076616356  1.0000
  O   O52       1.0  0.759703893647909  0.6408940954475031  0.64258621913571  1.0000
  O   O53       1.0  0.8183332851730708  0.5937209881959447  0.49520655142335895  1.0000
  O   O54       1.0  0.8369664365836967  0.09734716866486286  0.5234487217159017  1.0000
  O   O55       1.0  0.749565885653829  0.3712676380254265  0.407015790273853  1.0000
  O   O56       1.0  0.8138831177540208  0.4209793484485021  0.5481234589176375  1.0000
  O   O57       1.0  0.23283900366400365  0.48092992766508535  0.3534309350147551  1.0000
  O   O58       1.0  0.10644681603425668  0.4818632626648005  0.3596122259316066  1.0000
  O   O59       1.0  0.1488765539300133  0.4255909823086126  0.19779971622879475  1.0000
  O   O60       1.0  0.875439697138297  0.48717244566393303  0.39459410491711455  1.0000
  O   O61       1.0  0.8261638331441264  0.4324590833182233  0.23760242812368276  1.0000
  O   O62       1.0  0.24436615579864163  0.5050074409802977  0.5964382474474142  1.0000
  O   O63       1.0  0.11034226833776369  0.5061466693025656  0.6149372982929311  1.0000
  O   O64       1.0  0.160014942046721  0.5742717474765228  0.7431439507056786  1.0000
  O   O65       1.0  0.8805124811196233  0.5139211508314001  0.6408910300566626  1.0000
  O   O66       1.0  0.8368115338503593  0.575346715973393  0.80059110737376  1.0000
  O   O67       1.0  0.7319627135701834  0.49602106493291964  0.14767903348145486  1.0000
  O   O68       1.0  0.609021597649972  0.5139048533003805  0.1631677237622062  1.0000
  O   O69       1.0  0.6464411528321624  0.43677705674144585  0.3018810144620043  1.0000
  O   O70       1.0  0.37443475246694585  0.4904527046492126  0.10056961137226675  1.0000
  O   O71       1.0  0.32786219493083835  0.42486113927176206  0.2499952673919904  1.0000
  O   O72       1.0  0.7379745952299113  0.5079754041253075  0.8948721859319938  1.0000
  O   O73       1.0  0.6082568936383996  0.5263312540736723  0.8878176099900486  1.0000
  O   O74       1.0  0.6644620485754603  0.5819117155396438  0.7439188332152062  1.0000
  O   O75       1.0  0.3731857606751372  0.5082571640151256  0.8520008944706675  1.0000
  O   O76       1.0  0.335944530694882  0.5658661464627949  0.6856055940531247  1.0000
  O   O77       1.0  0.7499309096002852  0.5038133475231721  0.39638768581971184  1.0000
  O   O78       1.0  0.7497862706408142  0.5105201785086572  0.6475700498921506  1.0000
  O   O79       1.0  0.24490074195966527  0.49094430925008836  0.09652789403893436  1.0000
  O   O80       1.0  0.2483600119418284  0.5132272057188761  0.846054245687228  1.0000
