data_image0
_chemical_formula_structural       Al16H80C128O80
_chemical_formula_sum              "Al16 H80 C128 O80"
_cell_length_a       21.63717
_cell_length_b       21.63649
_cell_length_c       10.288049999999998
_cell_angle_alpha    90.00093999999999
_cell_angle_beta     89.99906
_cell_angle_gamma    90.00852000000002

_space_group_name_H-M_alt    "P 1"
_space_group_IT_number       1

loop_
  _space_group_symop_operation_xyz
  'x, y, z'

loop_
  _atom_site_type_symbol
  _atom_site_label
  _atom_site_symmetry_multiplicity
  _atom_site_fract_x
  _atom_site_fract_y
  _atom_site_fract_z
  _atom_site_occupancy
  Al  Al1       1.0  0.6878592460372286  0.9979761650400663  0.0005119386085232298  1.0000
  Al  Al2       1.0  0.32193129684107036  0.0004787917104018824  0.00481580668963833  1.0000
  Al  Al3       1.0  0.7528030045793058  0.9233040842330146  0.7394133292555176  1.0000
  Al  Al4       1.0  0.2520055928646041  0.935377647025716  0.757591279406453  1.0000
  Al  Al5       1.0  0.7601244649749548  0.06432073984701236  0.2393263583149992  1.0000
  Al  Al6       1.0  0.25618181471440027  0.07767572879856953  0.25711301857124275  1.0000
  Al  Al7       1.0  0.1884061274303702  0.0029243883193810936  0.5067379932448827  1.0000
  Al  Al8       1.0  0.8249659711991786  0.992725997123832  0.4937215333680315  1.0000
  Al  Al9       1.0  0.25052443524262297  0.5693917233713706  0.7330611876915101  1.0000
  Al  Al10      1.0  0.17697179873074273  0.5091840298089209  0.48528398397593475  1.0000
  Al  Al11      1.0  0.24473435576066313  0.43399822009691597  0.23794108705330866  1.0000
  Al  Al12      1.0  0.7503763488593737  0.5650221625129774  0.7504894875197822  1.0000
  Al  Al13      1.0  0.6752277244253236  0.5048624286222478  0.9986222559179033  1.0000
  Al  Al14      1.0  0.7473412282433938  0.4299543125468682  0.25361822801232475  1.0000
  Al  Al15      1.0  0.3170015961763379  0.49846576233217776  0.9779144191502618  1.0000
  Al  Al16      1.0  0.8201730779290479  0.4971799738267371  0.5004275544331087  1.0000
  H   H1        1.0  0.7488972101430041  0.46557458357128334  0.6578528683104583  1.0000
  H   H2        1.0  0.7223479618913982  0.507738185453913  0.42480469779755786  1.0000
  H   H3        1.0  0.22767283939229055  0.0038163484940911315  0.9265442481874935  1.0000
  H   H4        1.0  0.2565593483584939  0.47606886383384334  0.6426091642030516  1.0000
  H   H5        1.0  0.2713961681327885  0.5169019620430414  0.36370277953616004  1.0000
  H   H6        1.0  0.7756045541069501  0.49164349686690223  0.9240602750335062  1.0000
  H   H7        1.0  0.7467994221269326  0.5320165311334444  0.15980194501800116  1.0000
  H   H8        1.0  0.20941278702251528  0.5039890834729117  0.8996364279422088  1.0000
  H   H9        1.0  0.7275924944396082  0.9846495006662291  0.3930936573100215  1.0000
  H   H10       1.0  0.7532776716631373  0.9624543606094791  0.15719538206319272  1.0000
  H   H11       1.0  0.7796873681577896  0.017116604016768573  0.8593632906507391  1.0000
  H   H12       1.0  0.7286103211255525  0.017936335563906364  0.6164954409928901  1.0000
  H   H13       1.0  0.256551007523498  0.9652175937516975  0.17050165487843386  1.0000
  H   H14       1.0  0.24902109892956442  0.034017780518946134  0.6962476243727154  1.0000
  H   H15       1.0  0.29075260227668065  0.011749922108314381  0.4370671877770925  1.0000
  H   H16       1.0  0.24324583293590665  0.5325319845314297  0.14719343708550572  1.0000
  H   H17       1.0  0.5983387969855355  0.9014991026247658  0.53153846272828  1.0000
  H   H18       1.0  0.3972333580876405  0.9275199583504736  0.5369216539078431  1.0000
  H   H19       1.0  0.5035705601006749  0.9685705256912038  0.8748535798739532  1.0000
  H   H20       1.0  0.4903484688977751  0.89735730945711  0.407544261655841  1.0000
  H   H21       1.0  0.6087973728826707  0.09600509532405971  0.45023245427914593  1.0000
  H   H22       1.0  0.41722830282727763  0.13976592587812922  0.41048530587784066  1.0000
  H   H23       1.0  0.5064728988906215  0.02315481423355274  0.13196765960171086  1.0000
  H   H24       1.0  0.5150150042657844  0.15770414566174915  0.5227660131363467  1.0000
  H   H25       1.0  0.10514242723898536  0.9165369100860233  0.9669286689583696  1.0000
  H   H26       1.0  0.9027952359455224  0.911325619298249  0.9690039621388795  1.0000
  H   H27       1.0  0.0030532346467941895  0.973603785247129  0.6320782803106563  1.0000
  H   H28       1.0  0.9982704550133662  0.8894484822929787  0.08283800528082146  1.0000
  H   H29       1.0  0.10758673300029672  0.08119662054169963  0.02387367771988856  1.0000
  H   H30       1.0  0.9087282501468418  0.08501488151963767  0.012938449952694917  1.0000
  H   H31       1.0  0.0033116594386016114  0.014132892494791648  0.3595826518140545  1.0000
  H   H32       1.0  0.011075018748820796  0.09120219863857407  0.9027941128298932  1.0000
  H   H33       1.0  0.15348267291342818  0.8533564280514648  0.2832861650929321  1.0000
  H   H34       1.0  0.16347435259893725  0.6591031999900568  0.26444331634587404  1.0000
  H   H35       1.0  0.2493295426553947  0.7495425808458079  0.5955485424010291  1.0000
  H   H36       1.0  0.14370788919308475  0.7566173811734161  0.16491064880677983  1.0000
  H   H37       1.0  0.12656181251586268  0.16129501352430506  0.6988471568406949  1.0000
  H   H38       1.0  0.13350112788676566  0.362287679805756  0.6801580223543983  1.0000
  H   H39       1.0  0.2370645372487061  0.2577640752106606  0.40882512246071145  1.0000
  H   H40       1.0  0.09252289646571965  0.26084233691848757  0.7972304909295064  1.0000
  H   H41       1.0  0.688174164599914  0.8454959038108395  0.23136531807685476  1.0000
  H   H42       1.0  0.694743347666743  0.646270097506683  0.23925701864419746  1.0000
  H   H43       1.0  0.7460071011917216  0.7489501703966197  0.8890831714913539  1.0000
  H   H44       1.0  0.6913280700006913  0.7471353934782358  0.35843995810599866  1.0000
  H   H45       1.0  0.6665403666472426  0.14866517605193674  0.7760616805078413  1.0000
  H   H46       1.0  0.6604412937035351  0.35288720599441437  0.7903408558656141  1.0000
  H   H47       1.0  0.7365574887237171  0.24662319818107242  0.10436149904879424  1.0000
  H   H48       1.0  0.6412205592323932  0.2500985488100331  0.6599279486226404  1.0000
  H   H49       1.0  0.3374764740460999  0.8402298932277996  0.24603654343449013  1.0000
  H   H50       1.0  0.3405119882642951  0.6423601820248535  0.21077727368972576  1.0000
  H   H51       1.0  0.26869014386163653  0.7501922330525621  0.8849704922167207  1.0000
  H   H52       1.0  0.35712112579599825  0.7386593377332251  0.338332669547363  1.0000
  H   H53       1.0  0.31520780508369967  0.1479978133533081  0.7806468720662703  1.0000
  H   H54       1.0  0.350760588078857  0.3425225287381068  0.7679226677675713  1.0000
  H   H55       1.0  0.24784081191409893  0.2578456533033424  0.09005341150648885  1.0000
  H   H56       1.0  0.34915005473581  0.23550265981580085  0.6550525912892781  1.0000
  H   H57       1.0  0.8548275055865983  0.838343445400996  0.2672552952930784  1.0000
  H   H58       1.0  0.8610171414978907  0.6443145840704514  0.28389726049018343  1.0000
  H   H59       1.0  0.7740696590031628  0.7422113051784941  0.5993947406612095  1.0000
  H   H60       1.0  0.8761856222085423  0.7424742503946675  0.15836721929213743  1.0000
  H   H61       1.0  0.8344044870820618  0.15069506778715533  0.7147429106564337  1.0000
  H   H62       1.0  0.8073454864056615  0.34719270691408816  0.7269316296103411  1.0000
  H   H63       1.0  0.7760101778605374  0.24441495535324675  0.37306396946291176  1.0000
  H   H64       1.0  0.8403434254852161  0.2501531714954614  0.8419786570177247  1.0000
  H   H65       1.0  0.09817954492782312  0.4160847291747839  0.019983266999609065  1.0000
  H   H66       1.0  0.8968958169062649  0.3912970784828652  0.03094316610880322  1.0000
  H   H67       1.0  0.9983806887321556  0.4797064622011104  0.34194737690298516  1.0000
  H   H68       1.0  0.9958411462181045  0.3808195747074732  0.9038717261777078  1.0000
  H   H69       1.0  0.1041375581628687  0.5873865640464173  0.9545926635896014  1.0000
  H   H70       1.0  0.9057782501371382  0.5778863687826432  0.9764130853469233  1.0000
  H   H71       1.0  0.0012753082409881357  0.5216078580230361  0.6244266592531007  1.0000
  H   H72       1.0  0.006522007550906928  0.613912005758716  0.07517479407741388  1.0000
  H   H73       1.0  0.5934030260049089  0.4153521650620142  0.45523668151500263  1.0000
  H   H74       1.0  0.3919508256323562  0.4148851768261687  0.4566221666170225  1.0000
  H   H75       1.0  0.4952707831336795  0.49856300336697323  0.14729328788330284  1.0000
  H   H76       1.0  0.4997827519062319  0.3936433584253783  0.5717767255780337  1.0000
  H   H77       1.0  0.5981468870878291  0.6247152401832117  0.5710280861369275  1.0000
  H   H78       1.0  0.4012881997082429  0.6148578662626242  0.5586443409146271  1.0000
  H   H79       1.0  0.4997309655434767  0.5062642570124114  0.8351608198164205  1.0000
  H   H80       1.0  0.5120360969479798  0.6567745123857598  0.4729296524909395  1.0000
  C   C1        1.0  0.5539368100154699  0.912214793031438  0.5795693082367082  1.0000
  C   C2        1.0  0.5577861929160404  0.9316608928780548  0.7095764592867082  1.0000
  C   C3        1.0  0.6200096487980605  0.9392261129134908  0.7703475889146025  1.0000
  C   C4        1.0  0.5041182985045706  0.9492456256266001  0.7818681297393358  1.0000
  C   C5        1.0  0.4963068096623457  0.9097637064531794  0.5114871653438858  1.0000
  C   C6        1.0  0.44337720733939584  0.922690096271987  0.58236203572226  1.0000
  C   C7        1.0  0.44914101612932894  0.9435544208344825  0.7131071721049561  1.0000
  C   C8        1.0  0.3887539945835195  0.960590508718328  0.7794200108045738  1.0000
  C   C9        1.0  0.5661187229800091  0.09326726193676668  0.3978861301317193  1.0000
  C   C10       1.0  0.5654672255393555  0.059545057373831874  0.2829682000751804  1.0000
  C   C11       1.0  0.6221272339643018  0.039678399861437445  0.22565749492127105  1.0000
  C   C12       1.0  0.5074999465125637  0.049332929313525  0.2251694413055371  1.0000
  C   C13       1.0  0.5117920693733293  0.12421600732415167  0.44305447399912457  1.0000
  C   C14       1.0  0.4565595874008801  0.11452237832751276  0.3753582166726699  1.0000
  C   C15       1.0  0.4525531721101977  0.06971433439631969  0.27495791726918917  1.0000
  C   C16       1.0  0.39092450522671457  0.053127376113376125  0.21764008054029524  1.0000
  C   C17       1.0  0.057355139572890464  0.9222791369646027  0.9268310615292632  1.0000
  C   C18       1.0  0.056730955876770406  0.9440158582524474  0.7947961744160038  1.0000
  C   C19       1.0  0.11784189498864699  0.9610969732515032  0.731569596962059  1.0000
  C   C20       1.0  0.0010770006740723481  0.9575795857533108  0.7354295422394135  1.0000
  C   C21       1.0  0.0009948016193683795  0.9083410067231161  0.9828138444818149  1.0000
  C   C22       1.0  0.9461359890199271  0.9264633642178125  0.9245208258668783  1.0000
  C   C23       1.0  0.9446475481610982  0.949437581090323  0.796992571207046  1.0000
  C   C24       1.0  0.8869479756903673  0.9573036388679765  0.7209596708799175  1.0000
  C   C25       1.0  0.06520910238012874  0.07059230653047391  0.07292793291264302  1.0000
  C   C26       1.0  0.06458729579584396  0.048916472177731464  0.19956792011630461  1.0000
  C   C27       1.0  0.12403185831209844  0.04254069673903347  0.2751775458674763  1.0000
  C   C28       1.0  0.006796067631710164  0.03527304051612622  0.25924115169714046  1.0000
  C   C29       1.0  0.010860373885218377  0.0805968766044525  0.007972211451351113  1.0000
  C   C30       1.0  0.9525924432639798  0.07280876678114348  0.06605148110505664  1.0000
  C   C31       1.0  0.9506082039742648  0.05036601415093291  0.19441308124846549  1.0000
  C   C32       1.0  0.8885379029451562  0.041306986794573446  0.2553117676048315  1.0000
  C   C33       1.0  0.17217117790226655  0.8132582336663944  0.33115108314178726  1.0000
  C   C34       1.0  0.1995657417737297  0.8126391276663872  0.4571238544977569  1.0000
  C   C35       1.0  0.21020156822215097  0.8698823774179625  0.5291018513192426  1.0000
  C   C36       1.0  0.22189925454624984  0.7549794059903001  0.5073268881279394  1.0000
  C   C37       1.0  0.16446677901383347  0.7603027103337028  0.262069237681154  1.0000
  C   C38       1.0  0.17630502310118387  0.702503025675415  0.31436023841936767  1.0000
  C   C39       1.0  0.20450091794567535  0.7015671463128843  0.43800063872285816  1.0000
  C   C40       1.0  0.2096368896866868  0.6414621384785949  0.5027275656117448  1.0000
  C   C41       1.0  0.14667344512687733  0.20600937529773916  0.6632980265294673  1.0000
  C   C42       1.0  0.18905325469022613  0.2038712128111646  0.5578786379872385  1.0000
  C   C43       1.0  0.2059917038341949  0.14204892956403836  0.49318108303959257  1.0000
  C   C44       1.0  0.20802095818079216  0.2598312037856444  0.49703384036587567  1.0000
  C   C45       1.0  0.12766334032785137  0.26307207930645404  0.712959832230013  1.0000
  C   C46       1.0  0.148331093919869  0.3185035777380463  0.6549978413609484  1.0000
  C   C47       1.0  0.1854595115055977  0.3154760653414118  0.5413406633423069  1.0000
  C   C48       1.0  0.1982442081135311  0.3726436282011762  0.46175186175013355  1.0000
  C   C49       1.0  0.70337689468343  0.8026555522323638  0.1858083028867911  1.0000
  C   C50       1.0  0.7207830898893478  0.8015111811481388  0.051694602975600606  1.0000
  C   C51       1.0  0.7214363330079829  0.8592620767550456  0.9799356761206611  1.0000
  C   C52       1.0  0.7371376499509839  0.7472332966082539  0.9923522477775231  1.0000
  C   C53       1.0  0.6997342991244176  0.7462496908615343  0.2523400256315491  1.0000
  C   C54       1.0  0.7065578165452999  0.690799752251  0.19042439340081274  1.0000
  C   C55       1.0  0.7231539289741603  0.690761355259709  0.05528639345192456  1.0000
  C   C56       1.0  0.723351995292328  0.6308425174764639  0.982925136709235  1.0000
  C   C57       1.0  0.6713213902918804  0.19445201035692888  0.8211644609302613  1.0000
  C   C58       1.0  0.6973716584458395  0.19155906828407204  0.9495020594407012  1.0000
  C   C59       1.0  0.7088692727630055  0.1300663953625661  0.013755995551935157  1.0000
  C   C60       1.0  0.714396663878262  0.24790850288909683  0.012469488390367904  1.0000
  C   C61       1.0  0.6599333706534294  0.2514813537351809  0.7605112642440154  1.0000
  C   C62       1.0  0.6713457891486937  0.30628716299484243  0.8288969408483612  1.0000
  C   C63       1.0  0.7032881657131311  0.30585819021796784  0.948147422750196  1.0000
  C   C64       1.0  0.7061752502173643  0.3643303475110717  0.030714719512933978  1.0000
  C   C65       1.0  0.3299114257859374  0.8003721094218083  0.18292263553408677  1.0000
  C   C66       1.0  0.30438040574839387  0.8043386278723667  0.056328937957723674  1.0000
  C   C67       1.0  0.29290693696233017  0.868332483139362  0.9964966706770496  1.0000
  C   C68       1.0  0.2913161028478903  0.7509283674743983  0.9866812945827288  1.0000
  C   C69       1.0  0.33896725773260905  0.7434730265824252  0.23729961563727003  1.0000
  C   C70       1.0  0.3273490856863752  0.6890763756993549  0.1672016164834866  1.0000
  C   C71       1.0  0.3046569781666879  0.6936851107805815  0.03837727947533847  1.0000
  C   C72       1.0  0.29224336909076754  0.6322328565456812  0.9756784368953669  1.0000
  C   C73       1.0  0.30898115006220683  0.1940617312459513  0.8211052738150971  1.0000
  C   C74       1.0  0.2881580894362579  0.19588089197540812  0.9461484861192957  1.0000
  C   C75       1.0  0.28258915012170766  0.1370482263347211  0.019588722843904886  1.0000
  C   C76       1.0  0.27490917031162393  0.25334155062784736  0.9981994751187071  1.0000
  C   C77       1.0  0.3304837047314108  0.24494789363706343  0.7533857380247874  1.0000
  C   C78       1.0  0.3278710058268986  0.3023531311646911  0.8106498327909042  1.0000
  C   C79       1.0  0.29550900235909333  0.30660677277526827  0.9320231183344279  1.0000
  C   C80       1.0  0.2888500043047591  0.3664830542743121  0.005222199543592694  1.0000
  C   C81       1.0  0.8442656843919732  0.8001820504579823  0.3282825463434686  1.0000
  C   C82       1.0  0.810633604928593  0.799968081343962  0.44483425053645936  1.0000
  C   C83       1.0  0.7986235581899176  0.8601385488060896  0.51394442692473  1.0000
  C   C84       1.0  0.7948629259077185  0.7441455415215922  0.49945989292264953  1.0000
  C   C85       1.0  0.856969571258287  0.7443165370274958  0.2630466289265995  1.0000
  C   C86       1.0  0.8471654383586815  0.6883397282171686  0.32946773498497806  1.0000
  C   C87       1.0  0.8152028750381433  0.6867095889492175  0.44850202334181666  1.0000
  C   C88       1.0  0.8013894572128348  0.6303212321042977  0.5245530641328863  1.0000
  C   C89       1.0  0.8257879215844901  0.1937085665211477  0.665886623980604  1.0000
  C   C90       1.0  0.8031337244388701  0.1931740994390016  0.5389528502964323  1.0000
  C   C91       1.0  0.7939651269454291  0.13281804681019055  0.47297396215118825  1.0000
  C   C92       1.0  0.7883930746998711  0.24968699933441874  0.47673455623951516  1.0000
  C   C93       1.0  0.8268182784686893  0.24890588806286587  0.7420435099027036  1.0000
  C   C94       1.0  0.8112643978854133  0.302304492307481  0.683108185894444  1.0000
  C   C95       1.0  0.7952291763398117  0.30469012990755573  0.5472568476548229  1.0000
  C   C96       1.0  0.7847367086605775  0.36513413098672726  0.4833824360630392  1.0000
  C   C97       1.0  0.05251015552299332  0.4173089388458462  0.06365440877292015  1.0000
  C   C98       1.0  0.05231011872091892  0.44879169908589356  0.18518425654159176  1.0000
  C   C99       1.0  0.11328528758552306  0.4602989611193917  0.2525405777284533  1.0000
  C   C100      1.0  0.9985649556159695  0.4584795791962565  0.25136524615412636  1.0000
  C   C101      1.0  0.995767501606788  0.39672774835476826  0.009274008196468439  1.0000
  C   C102      1.0  0.9426043556999245  0.4055990194525884  0.08065441169349968  1.0000
  C   C103      1.0  0.9410580291693276  0.4375956820568599  0.19852964658508393  1.0000
  C   C104      1.0  0.8818609370473525  0.44410697316554304  0.2667525158546627  1.0000
  C   C105      1.0  0.05888563378045303  0.5759576847703557  0.9129988853599893  1.0000
  C   C106      1.0  0.05927713547691655  0.5482408490806634  0.7917533062331679  1.0000
  C   C107      1.0  0.1177343583877534  0.5449893896245738  0.7186369858223574  1.0000
  C   C108      1.0  0.001688964743509436  0.5326049738219547  0.7267211300501152  1.0000
  C   C109      1.0  0.004561427931193479  0.5907042996120716  0.9793115247993  1.0000
  C   C110      1.0  0.9491429932122137  0.5780563349075868  0.9207743831483484  1.0000
  C   C111      1.0  0.9486188420778433  0.5454461718429747  0.7939727802837552  1.0000
  C   C112      1.0  0.8894924101993334  0.5405935476833565  0.7224343468393153  1.0000
  C   C113      1.0  0.5479902265000537  0.4329675580252905  0.42246550037856434  1.0000
  C   C114      1.0  0.5498886178327463  0.4612823407636382  0.2998475620579404  1.0000
  C   C115      1.0  0.6117783454285507  0.46342646689165096  0.22941102061471075  1.0000
  C   C116      1.0  0.4950285791035311  0.4762525588685087  0.23947093867769187  1.0000
  C   C117      1.0  0.4918493134124008  0.4191995392090444  0.481613163945884  1.0000
  C   C118      1.0  0.4380078861871933  0.4324609511016309  0.4189367568353496  1.0000
  C   C119      1.0  0.4404935778256194  0.4605044592727765  0.2980407998430404  1.0000
  C   C120      1.0  0.3797589583059641  0.4667013543644607  0.22087396840135282  1.0000
  C   C121      1.0  0.556217375658952  0.6055666926612263  0.6046115893365603  1.0000
  C   C122      1.0  0.5594094230572005  0.5637837927163204  0.7132450884253844  1.0000
  C   C123      1.0  0.6185446694685804  0.5475495154819291  0.7750887935173336  1.0000
  C   C124      1.0  0.5015624726500041  0.5386361973001279  0.7546601262716882  1.0000
  C   C125      1.0  0.5023097868680951  0.6244103154553075  0.5492177187630921  1.0000
  C   C126      1.0  0.44513016799113464  0.5995254202023714  0.5926438325669943  1.0000
  C   C127      1.0  0.4459859601080186  0.55538500974595  0.6892364230255784  1.0000
  C   C128      1.0  0.385645037191105  0.5402286940993967  0.7538939062395033  1.0000
  O   O1        1.0  0.744986702551932  0.9875295485479955  0.8629664904806365  1.0000
  O   O2        1.0  0.6215155664261472  0.9687072113194113  0.8772664219583794  1.0000
  O   O3        1.0  0.668155281578059  0.9221974182547036  0.7084400068002655  1.0000
  O   O4        1.0  0.3882447874105171  0.9956825168408747  0.8762692116024071  1.0000
  O   O5        1.0  0.3422037916385459  0.9269507832083418  0.7425837201467729  1.0000
  O   O6        1.0  0.7503755672648527  0.00284679281145676  0.11841267687538955  1.0000
  O   O7        1.0  0.6175808046767577  0.007401672511338717  0.12106723823612843  1.0000
  O   O8        1.0  0.684609459463221  0.08262297202008892  0.9654334332233042  1.0000
  O   O9        1.0  0.6984066880565248  0.9057617107135649  0.035965308304253756  1.0000
  O   O10       1.0  0.6721848253100561  0.06366697709488615  0.2732138462348504  1.0000
  O   O11       1.0  0.39162921457578626  0.017615157231445955  0.12046027870524742  1.0000
  O   O12       1.0  0.34448418755702903  0.08366504354314323  0.26586586775298604  1.0000
  O   O13       1.0  0.24625945747888905  0.9999380236228395  0.6351534704592767  1.0000
  O   O14       1.0  0.11757235360825988  0.9892835261217061  0.6219034823627292  1.0000
  O   O15       1.0  0.16414900844156635  0.9391551412671718  0.7965543822401171  1.0000
  O   O16       1.0  0.8869046775693759  0.9928063292653971  0.6236464598953837  1.0000
  O   O17       1.0  0.8414413580755249  0.9259310837622283  0.7613283549465549  1.0000
  O   O18       1.0  0.25166650906643645  0.01587031654282474  0.3844557550813274  1.0000
  O   O19       1.0  0.1289281028869689  0.007903030466465654  0.37554607345801994  1.0000
  O   O20       1.0  0.18286625098290096  0.09328638460177602  0.5453565351558303  1.0000
  O   O21       1.0  0.1894981715765622  0.919831170444389  0.47683214810583296  1.0000
  O   O22       1.0  0.16666137733815753  0.07321484994494266  0.22665798772629922  1.0000
  O   O23       1.0  0.8847592640538542  0.007209608560867929  0.3550677194398436  1.0000
  O   O24       1.0  0.8425435888776006  0.0738961555304567  0.21256310676838933  1.0000
  O   O25       1.0  0.24480488885292306  0.8720679032821222  0.6349196370311103  1.0000
  O   O26       1.0  0.2432332089082306  0.6369317187978011  0.6037633557060523  1.0000
  O   O27       1.0  0.17851509177093208  0.5945817132976801  0.46225978793647654  1.0000
  O   O28       1.0  0.2652281408980948  0.9982970428563666  0.8765380137564347  1.0000
  O   O29       1.0  0.2566657069146131  0.8720345905489383  0.9015050570804005  1.0000
  O   O30       1.0  0.2398229307325682  0.14203916335140446  0.3907492694030331  1.0000
  O   O31       1.0  0.2289712133536678  0.3653518019550934  0.353647247143934  1.0000
  O   O32       1.0  0.17828028337253726  0.42248517337870845  0.5137298818942728  1.0000
  O   O33       1.0  0.2621336231576221  0.0081794199461087  0.13934395734719449  1.0000
  O   O34       1.0  0.24978717383703028  0.13947252921957767  0.12283817247584376  1.0000
  O   O35       1.0  0.7487299594389119  0.8579971214724464  0.8668648317611312  1.0000
  O   O36       1.0  0.7521332699694722  0.6315126121065314  0.8772470985686162  1.0000
  O   O37       1.0  0.6874044995350391  0.5888341419595252  0.03332100544731573  1.0000
  O   O38       1.0  0.7585342752715053  0.9842552959790514  0.6084525786407176  1.0000
  O   O39       1.0  0.7621057422907659  0.8557000255809967  0.6131238875877905  1.0000
  O   O40       1.0  0.7446014763706382  0.12751216567514476  0.11701122956478355  1.0000
  O   O41       1.0  0.7351721770449898  0.3625729879567743  0.13605855632279276  1.0000
  O   O42       1.0  0.675994354561355  0.40896048389174755  0.9795608791473729  1.0000
  O   O43       1.0  0.7674503379062569  0.9934909294174827  0.3567812764311825  1.0000
  O   O44       1.0  0.7607418226243766  0.13181586306562423  0.3720723063194836  1.0000
  O   O45       1.0  0.32219166292338175  0.9126621085127915  0.04815011786813966  1.0000
  O   O46       1.0  0.26108392175970757  0.629807829600658  0.8726889966919126  1.0000
  O   O47       1.0  0.322432806884609  0.5862413353966809  0.019084068414601255  1.0000
  O   O48       1.0  0.3213279469632146  0.09226444094584899  0.9853057890200801  1.0000
  O   O49       1.0  0.26183440239183275  0.3643030146280546  0.11232306027974116  1.0000
  O   O50       1.0  0.30954956505713055  0.4140943242625509  0.9424944933791635  1.0000
  O   O51       1.0  0.8332273052125362  0.9051241366178135  0.48064343984824787  1.0000
  O   O52       1.0  0.7620022196047644  0.6299063879634959  0.6140224261837818  1.0000
  O   O53       1.0  0.8244191407147111  0.5817624876066045  0.47289368551954064  1.0000
  O   O54       1.0  0.8202291427850675  0.08316591889733846  0.5247796512898915  1.0000
  O   O55       1.0  0.7518142616596888  0.36709853444756146  0.38220639392870587  1.0000
  O   O56       1.0  0.8132795678291598  0.4104820744569177  0.5375094640372289  1.0000
  O   O57       1.0  0.230335015052773  0.502082820281419  0.3482431695962002  1.0000
  O   O58       1.0  0.11201432666766227  0.49855008886542435  0.34980093029957093  1.0000
  O   O59       1.0  0.1588373743303722  0.4272584727774312  0.2046167563888712  1.0000
  O   O60       1.0  0.8806469361345582  0.4784843206562921  0.36610558959313416  1.0000
  O   O61       1.0  0.8349789981516135  0.41848358168077526  0.22125937379898086  1.0000
  O   O62       1.0  0.24212151682194175  0.5146831498266246  0.6075508557678216  1.0000
  O   O63       1.0  0.11770473980458279  0.5101085199077703  0.6157079312119131  1.0000
  O   O64       1.0  0.16250380132875686  0.5783966836668846  0.7627553202124655  1.0000
  O   O65       1.0  0.8841733139094895  0.5006811663228148  0.6264371938058649  1.0000
  O   O66       1.0  0.84279881702158  0.5740683308747238  0.7695052631091941  1.0000
  O   O67       1.0  0.7403269886159104  0.4920527729899368  0.12203343980033887  1.0000
  O   O68       1.0  0.6144436170231895  0.49876001351215465  0.13217130169137448  1.0000
  O   O69       1.0  0.6540752175909225  0.43155252415065876  0.2846620205761198  1.0000
  O   O70       1.0  0.3801884864153601  0.4900497281766482  0.1090648927932864  1.0000
  O   O71       1.0  0.33364960835298196  0.4381224474320992  0.27013151381922895  1.0000
  O   O72       1.0  0.7402925920368578  0.4980649464406501  0.872377624760316  1.0000
  O   O73       1.0  0.6144546695986008  0.5092210330559843  0.8686672024732671  1.0000
  O   O74       1.0  0.6663025725941067  0.5728668351569874  0.7357310308597871  1.0000
  O   O75       1.0  0.38654517855115894  0.5027465739589533  0.8488880645360717  1.0000
  O   O76       1.0  0.33777987970874607  0.565194280054488  0.7009487504377147  1.0000
  O   O77       1.0  0.7567307089453104  0.493817205931987  0.3685070291279973  1.0000
  O   O78       1.0  0.7560664883213821  0.5071590810435181  0.6210777155748262  1.0000
  O   O79       1.0  0.25533977125855367  0.49381774453265453  0.10922669021849797  1.0000
  O   O80       1.0  0.2506911613751213  0.5129548906011422  0.8671297915932406  1.0000
