data_image0
_chemical_formula_structural       Al16H64C128N16O112
_chemical_formula_sum              "Al16 H64 C128 N16 O112"
_cell_length_a       21.62769
_cell_length_b       21.646490000000004
_cell_length_c       10.3079
_cell_angle_alpha    89.86891
_cell_angle_beta     90.04471
_cell_angle_gamma    90.32585

_space_group_name_H-M_alt    "P 1"
_space_group_IT_number       1

loop_
  _space_group_symop_operation_xyz
  'x, y, z'

loop_
  _atom_site_type_symbol
  _atom_site_label
  _atom_site_symmetry_multiplicity
  _atom_site_fract_x
  _atom_site_fract_y
  _atom_site_fract_z
  _atom_site_occupancy
  Al  Al1       1.0  0.1852956917770482  0.25428502556794524  0.0995115713926946  1.0000
  Al  Al2       1.0  0.18336450349262018  0.7579011262881931  0.124548722652379  1.0000
  Al  Al3       1.0  0.25578455236966147  0.18097104487136598  0.8557790670758945  1.0000
  Al  Al4       1.0  0.25180384003069506  0.683231811085707  0.36397870900226686  1.0000
  Al  Al5       1.0  0.24795415752775404  0.8233712310169592  0.8608284458584777  1.0000
  Al  Al6       1.0  0.2583557154014761  0.3164458639855071  0.3576812974042033  1.0000
  Al  Al7       1.0  0.31827036363403866  0.7503293654070085  0.6190546532679942  1.0000
  Al  Al8       1.0  0.3229192149769136  0.24890457547362535  0.6019020019206919  1.0000
  Al  Al9       1.0  0.6775517146496229  0.7456747617308264  0.6233566312771296  1.0000
  Al  Al10      1.0  0.6807986817308938  0.24028594082222887  0.5982646452163876  1.0000
  Al  Al11      1.0  0.7468854863655708  0.6762068239503942  0.3691121749921193  1.0000
  Al  Al12      1.0  0.75380770601622  0.1743572695824168  0.8449167123746721  1.0000
  Al  Al13      1.0  0.7533922263489005  0.3141976824392365  0.34693649172151425  1.0000
  Al  Al14      1.0  0.7494237514539719  0.8228045411800226  0.8699915882079625  1.0000
  Al  Al15      1.0  0.8189794658154539  0.25018421419592635  0.08022906295268413  1.0000
  Al  Al16      1.0  0.8156636317858523  0.7556000814876053  0.12801569886076933  1.0000
  H   H1        1.0  0.001354040718232667  0.22722831003626873  0.9613280593989696  1.0000
  H   H2        1.0  0.990043650211487  0.7349602137981196  0.2546920822258059  1.0000
  H   H3        1.0  0.1053584665646394  0.15452335869185235  0.6378457701783317  1.0000
  H   H4        1.0  0.10006347779975597  0.3480342910973553  0.5539821406225028  1.0000
  H   H5        1.0  0.10151609523374724  0.6687182654715191  0.5809147242098056  1.0000
  H   H6        1.0  0.09753822854551557  0.8457214497673056  0.655401895764805  1.0000
  H   H7        1.0  0.17457365385486148  0.9100876109579606  0.340979058218326  1.0000
  H   H8        1.0  0.1757461364989735  0.11040598581887834  0.3413853109170662  1.0000
  H   H9        1.0  0.1492025815434155  0.5978071710739511  0.8960117767017161  1.0000
  H   H10       1.0  0.15575217270484554  0.4002085027701584  0.9085429155478365  1.0000
  H   H11       1.0  0.24006819070533153  0.005358408628895139  0.005042936538486753  1.0000
  H   H12       1.0  0.22653632772370402  0.506190342540753  0.23249392583511702  1.0000
  H   H13       1.0  0.2805097037258097  0.0012762439659028291  0.7194623719746065  1.0000
  H   H14       1.0  0.2998033151358567  0.5069611606834017  0.4892098519810256  1.0000
  H   H15       1.0  0.3507705178982928  0.09775972504219674  0.39269765000631435  1.0000
  H   H16       1.0  0.3379709672805867  0.9043406311241964  0.3819096928286402  1.0000
  H   H17       1.0  0.32998517038979414  0.39752644476761195  0.8322079839777987  1.0000
  H   H18       1.0  0.33106696307738936  0.5957757742536874  0.8551724616366906  1.0000
  H   H19       1.0  0.4037005134699577  0.6496796442906951  0.15451709734328162  1.0000
  H   H20       1.0  0.4027870237564909  0.8418722362459837  0.09294926898753339  1.0000
  H   H21       1.0  0.41945649030713  0.17519020614810699  0.10186130514305544  1.0000
  H   H22       1.0  0.40025715914142085  0.36138687912321626  0.1365180451379934  1.0000
  H   H23       1.0  0.500094136148329  0.764064864617173  0.7677611398757479  1.0000
  H   H24       1.0  0.5021612810468584  0.27590417156767777  0.45689907968196264  1.0000
  H   H25       1.0  0.4984552249481708  0.7283706496209823  0.4775600125704337  1.0000
  H   H26       1.0  0.5088761418789806  0.22222567682330918  0.7341530277753096  1.0000
  H   H27       1.0  0.6027953349305688  0.6699567803672178  0.14962704245615482  1.0000
  H   H28       1.0  0.6006051767350551  0.8377993502513957  0.08288750451604408  1.0000
  H   H29       1.0  0.6057310333258253  0.16922410797834703  0.07962700840518398  1.0000
  H   H30       1.0  0.5999723981191708  0.32985654148605953  0.10649674583698696  1.0000
  H   H31       1.0  0.6487759866541116  0.391705738741904  0.7949741228087912  1.0000
  H   H32       1.0  0.6342205297273684  0.5920444603367417  0.8174333040284412  1.0000
  H   H33       1.0  0.6827774348749305  0.09212078539182038  0.3644090801658637  1.0000
  H   H34       1.0  0.6552659939391382  0.892179800534064  0.40095206436321756  1.0000
  H   H35       1.0  0.7424580607752272  0.5041771484332487  0.5090758941683843  1.0000
  H   H36       1.0  0.7396497542209056  0.9970482918413002  0.7204542141315283  1.0000
  H   H37       1.0  0.7686713141978565  0.4955197826283174  0.2146361520900736  1.0000
  H   H38       1.0  0.7712973810154314  0.9937545177523787  0.9976628230810325  1.0000
  H   H39       1.0  0.8293982166877796  0.6090623999055679  0.886740692556154  1.0000
  H   H40       1.0  0.8282506036759208  0.4136383927465474  0.8564031135577429  1.0000
  H   H41       1.0  0.8330788838484375  0.9038926213205891  0.3489766717033088  1.0000
  H   H42       1.0  0.8297698565250126  0.10439879015736729  0.3186111373658804  1.0000
  H   H43       1.0  0.9032613217241594  0.1488384873489927  0.631943575051334  1.0000
  H   H44       1.0  0.9008383798000142  0.3008652439646709  0.576309933883063  1.0000
  H   H45       1.0  0.9025262194154775  0.6666988982935854  0.5892616329424928  1.0000
  H   H46       1.0  0.8926785891004818  0.8486461310078771  0.6620255105459344  1.0000
  H   H47       1.0  0.0067733986319474205  0.26453881998372597  0.2459179717525011  1.0000
  H   H48       1.0  0.0009534559617880856  0.7838975916290747  0.9859137284410471  1.0000
  H   H49       1.0  0.2691892811529599  0.7247164007471508  0.972157854106139  1.0000
  H   H50       1.0  0.21303816998784034  0.7474100824029637  0.5273970400753363  1.0000
  H   H51       1.0  0.2357708703459345  0.7222837482051564  0.762585069545658  1.0000
  H   H52       1.0  0.2594158380479861  0.7842834463678996  0.28537512056789327  1.0000
  H   H53       1.0  0.7544678812175243  0.7195921563060709  0.7892032622835942  1.0000
  H   H54       1.0  0.75058234420796  0.774425594994558  0.32116953595223163  1.0000
  H   H55       1.0  0.7784824293602929  0.7410435828649155  0.5438759285589668  1.0000
  H   H56       1.0  0.7126765022656429  0.7552164814610324  0.04195760664236392  1.0000
  H   H57       1.0  0.29220568744505904  0.2509963845047282  0.17645773302371195  1.0000
  H   H58       1.0  0.22555905331861198  0.26471291538685565  0.7225600905181991  1.0000
  H   H59       1.0  0.27212070421426504  0.28335231822021123  0.9387402657694014  1.0000
  H   H60       1.0  0.24359252655885588  0.2181984519422982  0.4502156804836019  1.0000
  H   H61       1.0  0.7723698216525143  0.21264809628059747  0.4628742666104707  1.0000
  H   H62       1.0  0.7377437210107214  0.2744843078201094  0.9283770345541255  1.0000
  H   H63       1.0  0.7778494690940269  0.25962490801654126  0.681592037896159  1.0000
  H   H64       1.0  0.724463133417153  0.23101254087326253  0.20980193512104167  1.0000
  C   C1        1.0  0.0005509128455605054  0.2093167975468789  0.8631372361354942  1.0000
  C   C2        1.0  0.9968353138164332  0.6584361340523287  0.5997079239946873  1.0000
  C   C3        1.0  0.9948396254789482  0.7178166439642839  0.3527693669986318  1.0000
  C   C4        1.0  0.9966293751015847  0.844218053162825  0.6342096077071732  1.0000
  C   C5        1.0  0.06037285657851994  0.1640179884889884  0.6785306411145321  1.0000
  C   C6        1.0  0.05722219719239909  0.19240602340511026  0.8031061937521923  1.0000
  C   C7        1.0  0.057932883808467034  0.2983389786375343  0.398907802063732  1.0000
  C   C8        1.0  0.056248599439943876  0.32575807854228866  0.5234766782493129  1.0000
  C   C9        1.0  0.05468114572070117  0.816711187962851  0.830136893633297  1.0000
  C   C10       1.0  0.05371924917995839  0.7036526920086691  0.41636007787314444  1.0000
  C   C11       1.0  0.05434609745791621  0.675869984523127  0.5394644458702466  1.0000
  C   C12       1.0  0.05327081460716583  0.8399515941332033  0.7057932802811818  1.0000
  C   C13       1.0  0.11693497293013605  0.7082615017844529  0.34735803079854766  1.0000
  C   C14       1.0  0.11657735843548518  0.2043969175823819  0.871706149026475  1.0000
  C   C15       1.0  0.12257457681225395  0.29198221668816743  0.34029805040491157  1.0000
  C   C16       1.0  0.11613522673326541  0.809326836807993  0.8949214884059318  1.0000
  C   C17       1.0  0.18165525464027124  0.953082409077508  0.2903223996925019  1.0000
  C   C18       1.0  0.17746946079595632  0.009238923875709935  0.36143535135067845  1.0000
  C   C19       1.0  0.18575902654211598  0.0658036191716412  0.2924252958320371  1.0000
  C   C20       1.0  0.15242107736593286  0.4984023949248523  0.8884546101767985  1.0000
  C   C21       1.0  0.1617451584330556  0.5559351418210049  0.9467630881482059  1.0000
  C   C22       1.0  0.1680148631204649  0.44490528189642053  0.9517687003717794  1.0000
  C   C23       1.0  0.20553105329825944  0.9523972473244535  0.1604245612600559  1.0000
  C   C24       1.0  0.20678415341301642  0.06363511972750799  0.16425335615699513  1.0000
  C   C25       1.0  0.21339997239504996  0.8910891356999519  0.08927348339340554  1.0000
  C   C26       1.0  0.1933213284742255  0.4440741824562207  0.07464269350106657  1.0000
  C   C27       1.0  0.21045996718427767  0.38149073357579044  0.13147412723142782  1.0000
  C   C28       1.0  0.20286594003384512  0.6174252988685015  0.13661562979916825  1.0000
  C   C29       1.0  0.2232390398868544  0.007768434452156263  0.10687428843360057  1.0000
  C   C30       1.0  0.2105127117093534  0.12010718499454316  0.0842890608045772  1.0000
  C   C31       1.0  0.1918050035051131  0.5547820808504229  0.06970651366274674  1.0000
  C   C32       1.0  0.20534833124109345  0.5005909220211456  0.13698908716769323  1.0000
  C   C33       1.0  0.29143749048261264  0.000949464699256322  0.6212334797404767  1.0000
  C   C34       1.0  0.3118649680672111  0.5014676845065354  0.5928597895016113  1.0000
  C   C35       1.0  0.300890051828236  0.3828697535823262  0.5837015967683005  1.0000
  C   C36       1.0  0.30069641227918786  0.9471261798130617  0.5585139265360122  1.0000
  C   C37       1.0  0.2930880847016054  0.8842544031681343  0.6300774678898671  1.0000
  C   C38       1.0  0.30081257526780725  0.11662609795663599  0.637847431045225  1.0000
  C   C39       1.0  0.30039508870811377  0.6154023213542134  0.5919764382357794  1.0000
  C   C40       1.0  0.30801549497988295  0.056473637723965325  0.5692342383125549  1.0000
  C   C41       1.0  0.3184813680724093  0.4426407525627407  0.6515961250232274  1.0000
  C   C42       1.0  0.31367611199213297  0.555223152086204  0.6639275950723187  1.0000
  C   C43       1.0  0.33216060598762914  0.05783757410582405  0.43934723432021666  1.0000
  C   C44       1.0  0.3251607945680966  0.946146589151023  0.4340216510449575  1.0000
  C   C45       1.0  0.339958175123183  0.0016017094062941162  0.37584089878233495  1.0000
  C   C46       1.0  0.33093343084461  0.44230169835834454  0.7838178887703082  1.0000
  C   C47       1.0  0.33862977069474215  0.49660558555840056  0.8499984935837955  1.0000
  C   C48       1.0  0.3266972386556441  0.5532889430538415  0.7925167984503294  1.0000
  C   C49       1.0  0.38476774687951776  0.6998266171570067  0.38951487703331905  1.0000
  C   C50       1.0  0.3886593369104346  0.20630235382602863  0.835425754481855  1.0000
  C   C51       1.0  0.38994417560986233  0.30027770672652965  0.3840122872569582  1.0000
  C   C52       1.0  0.38218981226625437  0.7941922074688171  0.8438434460242792  1.0000
  C   C53       1.0  0.4451404402306368  0.6676665916480219  0.2010972094964965  1.0000
  C   C54       1.0  0.441870837023357  0.8312985930361891  0.037044090634193734  1.0000
  C   C55       1.0  0.4426204696212871  0.8086014378509768  0.9142266892159782  1.0000
  C   C56       1.0  0.4451351411744291  0.6902610885153044  0.33085936422300477  1.0000
  C   C57       1.0  0.45598262678591656  0.1885726307178299  0.03944870866237129  1.0000
  C   C58       1.0  0.4503467755083117  0.20257213309562014  0.904440910957345  1.0000
  C   C59       1.0  0.44776165483290625  0.31063427069970767  0.3037660830325813  1.0000
  C   C60       1.0  0.4420132024921336  0.34072473816601223  0.1808326902226348  1.0000
  C   C61       1.0  0.5020331864893263  0.6628444002696091  0.13482135416070437  1.0000
  C   C62       1.0  0.4972051445885934  0.7893665120104213  0.854039856159898  1.0000
  C   C63       1.0  0.49866393635436895  0.836330097066899  0.10000279994010239  1.0000
  C   C64       1.0  0.5031705117837336  0.2915137671724527  0.35453737726894763  1.0000
  C   C65       1.0  0.5000837895446125  0.7101535617826336  0.3845197412709493  1.0000
  C   C66       1.0  0.511864109075537  0.18125035851148621  0.09592611289827614  1.0000
  C   C67       1.0  0.5055566897245529  0.2109606774205992  0.8385374778586672  1.0000
  C   C68       1.0  0.4973860224031012  0.3414753041639212  0.10813096318966815  1.0000
  C   C69       1.0  0.5588301713115229  0.6731579341466328  0.20050931694368596  1.0000
  C   C70       1.0  0.5575725510151923  0.6962340495591487  0.32192252759945666  1.0000
  C   C71       1.0  0.5539690195904524  0.8075382891659281  0.9073344010810124  1.0000
  C   C72       1.0  0.5553940952337777  0.8290896030082626  0.03282919463145116  1.0000
  C   C73       1.0  0.5582676451099366  0.3034928066858268  0.2872213157591587  1.0000
  C   C74       1.0  0.5635623055251081  0.19952868898548282  0.8988244800089851  1.0000
  C   C75       1.0  0.565788512589036  0.18130159887630565  0.032056285193229284  1.0000
  C   C76       1.0  0.5557239243496939  0.32680394659097733  0.1566295677207666  1.0000
  C   C77       1.0  0.6207726314797927  0.2025233454400402  0.8223482690085699  1.0000
  C   C78       1.0  0.6149588864066617  0.6999361562633886  0.39460231605536406  1.0000
  C   C79       1.0  0.6134350481969475  0.7961484286900425  0.8423221870229939  1.0000
  C   C80       1.0  0.6187867659049926  0.29209955911188323  0.3539963809226923  1.0000
  C   C81       1.0  0.662034814490988  0.4372249328409884  0.759371945976426  1.0000
  C   C82       1.0  0.6462178135326646  0.48834540602160204  0.8265349943028732  1.0000
  C   C83       1.0  0.6533418737355678  0.5486749972025118  0.7740678463135924  1.0000
  C   C84       1.0  0.668084278160175  0.9898836316875762  0.3633421439302365  1.0000
  C   C85       1.0  0.6825428814731526  0.04964402260048134  0.42114319505136366  1.0000
  C   C86       1.0  0.6728656439009545  0.9363820049157855  0.43560359668672843  1.0000
  C   C87       1.0  0.7005399622701375  0.436475220691458  0.6460803191313949  1.0000
  C   C88       1.0  0.690178400824101  0.5506731108899825  0.6612752895972183  1.0000
  C   C89       1.0  0.7106998649091436  0.37722775539124453  0.5746399846089947  1.0000
  C   C90       1.0  0.6990803024828716  0.938597080185351  0.5594058266097084  1.0000
  C   C91       1.0  0.7078766355619216  0.8819251736153848  0.6306687879209101  1.0000
  C   C92       1.0  0.7100316807745864  0.10752590084817185  0.6251550881868027  1.0000
  C   C93       1.0  0.7119178821690172  0.4962812298955893  0.5960045090260727  1.0000
  C   C94       1.0  0.7036950421832996  0.04866665052420084  0.5528219348751992  1.0000
  C   C95       1.0  0.7007047607193062  0.6089768366258841  0.5942251530558053  1.0000
  C   C96       1.0  0.7166164769697705  0.9949135976674388  0.6206761997196862  1.0000
  C   C97       1.0  0.7906613270519753  0.5019371162044222  0.11757638888226883  1.0000
  C   C98       1.0  0.7917784358999839  0.9987831767889169  0.09441764024375117  1.0000
  C   C99       1.0  0.8053029911362681  0.4488050810772381  0.05169937249241386  1.0000
  C   C100      1.0  0.7932079430830975  0.8828327030608318  0.11081454185704248  1.0000
  C   C101      1.0  0.8013781508742673  0.3830889329926037  0.12009416995980625  1.0000
  C   C102      1.0  0.7932659554247733  0.6188505213678916  0.13788309436924717  1.0000
  C   C103      1.0  0.7945201608422521  0.11325279140498462  0.06898707889977383  1.0000
  C   C104      1.0  0.7975843669633206  0.5592791218655255  0.06268446739134335  1.0000
  C   C105      1.0  0.8068021302829352  0.9448470204326095  0.1699811146639661  1.0000
  C   C106      1.0  0.804974583903049  0.05619847683397315  0.14580759769655072  1.0000
  C   C107      1.0  0.817538643711182  0.5656481036575363  0.9382740045528151  1.0000
  C   C108      1.0  0.8229401603927717  0.4525801996690964  0.9186433562929447  1.0000
  C   C109      1.0  0.8261892117396318  0.5108690924825983  0.8691900850835178  1.0000
  C   C110      1.0  0.8219049895030608  0.9466942894731517  0.29945084913254055  1.0000
  C   C111      1.0  0.8318530729609044  0.008163941234054617  0.35033264728499885  1.0000
  C   C112      1.0  0.8248931274308714  0.06032009069600384  0.27397707323496356  1.0000
  C   C113      1.0  0.8845523716959659  0.2027131878628199  0.8665358800889212  1.0000
  C   C114      1.0  0.8787597911057761  0.7090558530628908  0.3521621008991744  1.0000
  C   C115      1.0  0.8801890224918953  0.7990031934093533  0.8935717759998627  1.0000
  C   C116      1.0  0.8869873096770845  0.280645507643924  0.3289447989416073  1.0000
  C   C117      1.0  0.9464439469194621  0.16238857495183784  0.6805385535182085  1.0000
  C   C118      1.0  0.9461809792474671  0.30596212995028016  0.5284541799126641  1.0000
  C   C119      1.0  0.9463153949101676  0.2875512645624689  0.40235611583262076  1.0000
  C   C120      1.0  0.9453823971658128  0.19484158543012076  0.7961730523662077  1.0000
  C   C121      1.0  0.9424126060833082  0.6752628390471657  0.5366586683391174  1.0000
  C   C122      1.0  0.9402825785542305  0.7025441136481217  0.4117944838110574  1.0000
  C   C123      1.0  0.9433195440989791  0.8106864454579559  0.8256769567051764  1.0000
  C   C124      1.0  0.939488844102876  0.8358490426120824  0.7012995681889895  1.0000
  C   C125      1.0  0.0032846363716019233  0.15045210241783627  0.6237129405830341  1.0000
  C   C126      1.0  0.0032380036444254797  0.2815169533324267  0.34018610972254093  1.0000
  C   C127      1.0  0.0007359409082462143  0.3271801669833984  0.5879067982366594  1.0000
  C   C128      1.0  0.999300126681024  0.800177836687462  0.890390499941363  1.0000
  N   N1        1.0  0.9984010747044106  0.8568908334310817  0.48698268768504666  1.0000
  N   N2        1.0  0.4997358944499569  0.8478718654863594  0.24064736491764913  1.0000
  N   N3        1.0  0.005867460902711841  0.12387319466314202  0.4904023854546644  1.0000
  N   N4        1.0  0.5168473627902791  0.16483013376647743  0.2370637807192808  1.0000
  N   N5        1.0  0.9934595062329097  0.6373937752400965  0.7387877301983848  1.0000
  N   N6        1.0  0.9946282976439154  0.35651734254099066  0.7206769284268346  1.0000
  N   N7        1.0  0.3438521431516113  0.48977242918470293  0.9966172210298976  1.0000
  N   N8        1.0  0.1394293403784723  0.49585877307990933  0.7440727823066255  1.0000
  N   N9        1.0  0.15112998828892094  0.008630064469608255  0.4947107527566497  1.0000
  N   N10       1.0  0.8508631591518557  0.018991751356028708  0.4893866848284043  1.0000
  N   N11       1.0  0.6594401459190677  0.991870068676418  0.22274952081853952  1.0000
  N   N12       1.0  0.5017657964060551  0.6448231572790317  0.9857390182436465  1.0000
  N   N13       1.0  0.8440465725842631  0.5171038005717673  0.7279644281822037  1.0000
  N   N14       1.0  0.620097858794541  0.4810809785586511  0.9601752227783726  1.0000
  N   N15       1.0  0.3638205173391819  0.0012241734103546342  0.24149079037916193  1.0000
  N   N16       1.0  0.4952798706985209  0.3660938014060118  0.9681394860173325  1.0000
  O   O1        1.0  0.12515820826668655  0.2675916797872289  0.22903843890629297  1.0000
  O   O2        1.0  0.11729948271091757  0.7821248294187683  0.009049724561311923  1.0000
  O   O3        1.0  0.116434244843806  0.7450195119356041  0.24845444825404614  1.0000
  O   O4        1.0  0.11975247329774581  0.2423692700066451  0.972361499882456  1.0000
  O   O5        1.0  0.1606744167148987  0.678649479308425  0.3963181428968298  1.0000
  O   O6        1.0  0.16521100757736312  0.18019155256629735  0.8210412065389675  1.0000
  O   O7        1.0  0.16702784323842185  0.3147672120601278  0.40272750390845685  1.0000
  O   O8        1.0  0.16333019868318754  0.8296778885183059  0.831971126120321  1.0000
  O   O9        1.0  0.18843635418578522  0.844082796259222  0.15687230749178074  1.0000
  O   O10       1.0  0.1854472663056051  0.16966578498042587  0.1262877259600137  1.0000
  O   O11       1.0  0.1826603075913369  0.6657684579126667  0.08348520413861195  1.0000
  O   O12       1.0  0.19879549907141383  0.3359915710054689  0.05824758663295787  1.0000
  O   O13       1.0  0.2516173322112564  0.24499793552391982  0.9759699718607782  1.0000
  O   O14       1.0  0.2426508902464187  0.11510951099968776  0.9815252485647726  1.0000
  O   O15       1.0  0.24557407864835382  0.8900677987918831  0.9851982498785362  1.0000
  O   O16       1.0  0.2378721253222287  0.37871092279226914  0.23829286684642786  1.0000
  O   O17       1.0  0.2529497045271672  0.2529842434348146  0.2307059725503586  1.0000
  O   O18       1.0  0.23596642196501383  0.6194597473850899  0.243458988467411  1.0000
  O   O19       1.0  0.2444887544598301  0.7456504150432696  0.24830885949496542  1.0000
  O   O20       1.0  0.25401384680995714  0.7495949957976393  0.4868244813822659  1.0000
  O   O21       1.0  0.2386610052355292  0.7606739229522079  0.9860251209985377  1.0000
  O   O22       1.0  0.2513258437347208  0.7595959650693239  0.7362964337389476  1.0000
  O   O23       1.0  0.26264652137181854  0.24297761049598182  0.7327115553837827  1.0000
  O   O24       1.0  0.2593566078475137  0.8836329489316347  0.7333790967875324  1.0000
  O   O25       1.0  0.264913708153284  0.11503196001310494  0.7374664970029001  1.0000
  O   O26       1.0  0.27350415048686955  0.6127537141447678  0.4850563973818778  1.0000
  O   O27       1.0  0.2651836196448797  0.3841487362201671  0.48710504953106676  1.0000
  O   O28       1.0  0.26188588233291343  0.25599142083082843  0.47952527891817365  1.0000
  O   O29       1.0  0.3277430360567437  0.1625211392388349  0.5805013614097446  1.0000
  O   O30       1.0  0.32007225156655905  0.8395205439123982  0.5831726902136484  1.0000
  O   O31       1.0  0.3291125483829687  0.3352891790088453  0.6309544347135115  1.0000
  O   O32       1.0  0.31361943959743827  0.6638103131598765  0.6573565178184133  1.0000
  O   O33       1.0  0.3365790022571641  0.6791851795253737  0.32453808348414503  1.0000
  O   O34       1.0  0.34377927034881506  0.17701791788739243  0.8864911734990122  1.0000
  O   O35       1.0  0.33881451222905246  0.32379833933996516  0.3298393484472461  1.0000
  O   O36       1.0  0.33978149036422767  0.827147691729455  0.8862264320923244  1.0000
  O   O37       1.0  0.39349492388741425  0.2690597627482729  0.4844020400792262  1.0000
  O   O38       1.0  0.3829489670584755  0.7625897163936186  0.7383823651709107  1.0000
  O   O39       1.0  0.38555137345963236  0.7289138172581534  0.4995442169028376  1.0000
  O   O40       1.0  0.3883142927830747  0.23680805836516383  0.7290519816743828  1.0000
  O   O41       1.0  0.6147110476509265  0.7614517568103552  0.7408405568278554  1.0000
  O   O42       1.0  0.6196776676051088  0.25931040270838057  0.4591686630228658  1.0000
  O   O43       1.0  0.6200660929131996  0.23982469082283883  0.7269576207608566  1.0000
  O   O44       1.0  0.613355284633886  0.7372512399836364  0.49217720896574635  1.0000
  O   O45       1.0  0.6667891800273369  0.16984803232622853  0.8522655215956118  1.0000
  O   O46       1.0  0.6595285375379931  0.6676864836458463  0.35512954616595543  1.0000
  O   O47       1.0  0.6609829863395162  0.8229734857591654  0.8922266435894733  1.0000
  O   O48       1.0  0.6671413208771427  0.323354692686814  0.3063004572569314  1.0000
  O   O49       1.0  0.6837767455036985  0.33014216061711094  0.6226459684525032  1.0000
  O   O50       1.0  0.6729300186027636  0.6571914061330121  0.6443543718673642  1.0000
  O   O51       1.0  0.6800153677191135  0.15297667144823512  0.580114567629314  1.0000
  O   O52       1.0  0.677088366921348  0.8331870846297161  0.5947441497066518  1.0000
  O   O53       1.0  0.7387199099304376  0.7364683911102966  0.4996957651860571  1.0000
  O   O54       1.0  0.7381256417158996  0.6105445724621247  0.49597421067937514  1.0000
  O   O55       1.0  0.7491493124120641  0.3774624407966689  0.48296871098016575  1.0000
  O   O56       1.0  0.7437756031183838  0.8785917024642966  0.72966547214416  1.0000
  O   O57       1.0  0.7467960727599803  0.11017540486291441  0.7197382689352699  1.0000
  O   O58       1.0  0.7362233128989987  0.7553873173320598  0.7550871829690557  1.0000
  O   O59       1.0  0.7441191788973074  0.23777663325307008  0.7253657991699187  1.0000
  O   O60       1.0  0.755062289077499  0.23459285975692332  0.9620435967335222  1.0000
  O   O61       1.0  0.7384613490465621  0.24256527349735302  0.46165012621896745  1.0000
  O   O62       1.0  0.7562044748506747  0.2622332202438351  0.20777060856872628  1.0000
  O   O63       1.0  0.7794576659474546  0.37864357324070674  0.2355729858197383  1.0000
  O   O64       1.0  0.7513425529495531  0.7410736096277456  0.25365626784177764  1.0000
  O   O65       1.0  0.7633862731178713  0.6129253234475938  0.24474687141687285  1.0000
  O   O66       1.0  0.7584750318333681  0.11296316216148924  0.9687210571865701  1.0000
  O   O67       1.0  0.7665026595226566  0.8797745816196381  0.9997649343833499  1.0000
  O   O68       1.0  0.7522839685452145  0.7610916061770403  0.0029139981612857913  1.0000
  O   O69       1.0  0.8165447718972072  0.6684867023657298  0.09393655734235404  1.0000
  O   O70       1.0  0.8208442163064583  0.339915228718617  0.04598500666503529  1.0000
  O   O71       1.0  0.8176525995329593  0.8369002959096435  0.1712859817236506  1.0000
  O   O72       1.0  0.8270198951131141  0.1618470427437144  0.10730310156435241  1.0000
  O   O73       1.0  0.8391728668263269  0.1717900220694624  0.8177149596958093  1.0000
  O   O74       1.0  0.8332677716754053  0.6816959171636447  0.41049103023447076  1.0000
  O   O75       1.0  0.8348928970586977  0.8243846715048859  0.8369631904430971  1.0000
  O   O76       1.0  0.8403147670151994  0.30062552886668237  0.3927368210475242  1.0000
  O   O77       1.0  0.8794775509146805  0.7688971865351002  0.9989212062404873  1.0000
  O   O78       1.0  0.8891118894486382  0.26162726694111227  0.21275943555924604  1.0000
  O   O79       1.0  0.8849095104181398  0.23912663664639405  0.965001480780119  1.0000
  O   O80       1.0  0.873372210502765  0.7430122220578268  0.25627809175274974  1.0000
  O   O81       1.0  0.9508893223750268  0.8735831701327884  0.4316205885525066  1.0000
  O   O82       1.0  0.04889298656920012  0.8525368930956269  0.43637056988399214  1.0000
  O   O83       1.0  0.44898812363338947  0.843608498030723  0.30376958812141636  1.0000
  O   O84       1.0  0.5488564471857231  0.8601321332078065  0.2930603979442105  1.0000
  O   O85       1.0  0.05297781949889493  0.13064517614498092  0.42684129757699013  1.0000
  O   O86       1.0  0.9611105384918676  0.0927556028929642  0.44881519716164825  1.0000
  O   O87       1.0  0.4668783228023205  0.16686616910847185  0.3012716899101046  1.0000
  O   O88       1.0  0.5680952192417238  0.15584959427364875  0.28882067139933343  1.0000
  O   O89       1.0  0.9497186049844049  0.6071381322446129  0.7826506747855997  1.0000
  O   O90       1.0  0.043128372901085045  0.6483905886531302  0.7933618420929041  1.0000
  O   O91       1.0  0.9394131397031823  0.3629062353688727  0.7580428692594269  1.0000
  O   O92       1.0  0.04213879810862211  0.3721952170835973  0.7814381439700966  1.0000
  O   O93       1.0  0.34167306999549923  0.5360491523622303  0.06376569561941936  1.0000
  O   O94       1.0  0.33477158115518163  0.4372483623488544  0.04007084592339857  1.0000
  O   O95       1.0  0.1268085905286303  0.5444030728461763  0.6935142934318925  1.0000
  O   O96       1.0  0.14529001195900268  0.44379618540353083  0.6922777789999546  1.0000
  O   O97       1.0  0.1456040695608535  0.060849527995156014  0.545344404589498  1.0000
  O   O98       1.0  0.13968873332461829  0.959265353926493  0.5492473767899007  1.0000
  O   O99       1.0  0.844164480947213  0.06890661555950232  0.5423588867237942  1.0000
  O   O100      1.0  0.8692850848908134  0.9713514401052831  0.5406596637005989  1.0000
  O   O101      1.0  0.64942616071104  0.042316547240138946  0.16732972111344488  1.0000
  O   O102      1.0  0.6671976148161552  0.9413197801532124  0.1670946502400894  1.0000
  O   O103      1.0  0.45256470643009516  0.6256431939119946  0.9354709841383394  1.0000
  O   O104      1.0  0.5511271412431757  0.6526914030351523  0.9253463482879043  1.0000
  O   O105      1.0  0.8363388714018742  0.5672368794822017  0.6746204850827363  1.0000
  O   O106      1.0  0.8580220339249823  0.46887290881829086  0.6681508439161544  1.0000
  O   O107      1.0  0.5862799844018499  0.5221215094161361  0.0006607524162967771  1.0000
  O   O108      1.0  0.6298373520806406  0.4296818940609963  0.01369507572313879  1.0000
  O   O109      1.0  0.3636015424406426  0.052497758817116096  0.1843009741696771  1.0000
  O   O110      1.0  0.38115095888700945  0.9531754467079094  0.19128184898659145  1.0000
  O   O111      1.0  0.4524951657201836  0.4024691141728018  0.9446431661827492  1.0000
  O   O112      1.0  0.5396852496429506  0.3543444083763874  0.8995714936995531  1.0000
