data_image0
_chemical_formula_structural       Al16H64C128N16O112
_chemical_formula_sum              "Al16 H64 C128 N16 O112"
_cell_length_a       21.62769
_cell_length_b       21.646490000000004
_cell_length_c       10.3079
_cell_angle_alpha    89.86891
_cell_angle_beta     90.04471
_cell_angle_gamma    90.32585

_space_group_name_H-M_alt    "P 1"
_space_group_IT_number       1

loop_
  _space_group_symop_operation_xyz
  'x, y, z'

loop_
  _atom_site_type_symbol
  _atom_site_label
  _atom_site_symmetry_multiplicity
  _atom_site_fract_x
  _atom_site_fract_y
  _atom_site_fract_z
  _atom_site_occupancy
  Al  Al1       1.0  0.17607097808980932  0.24938079437566935  0.09427186521922448  1.0000
  Al  Al2       1.0  0.18721518495815806  0.7491752565536137  0.1193588356947805  1.0000
  Al  Al3       1.0  0.24404243383743654  0.18406497368228317  0.8430507808071932  1.0000
  Al  Al4       1.0  0.25242493868471877  0.6787454603301493  0.35804446651723554  1.0000
  Al  Al5       1.0  0.24648931869700613  0.8233776623005534  0.8539009952699208  1.0000
  Al  Al6       1.0  0.24653201006365733  0.3151464949591046  0.34627933364624536  1.0000
  Al  Al7       1.0  0.31550517538042666  0.7461901769214507  0.6158876497992927  1.0000
  Al  Al8       1.0  0.32092893083595747  0.24761325773910123  0.5997550763162309  1.0000
  Al  Al9       1.0  0.686966372845976  0.7492066615452962  0.6078698274835537  1.0000
  Al  Al10      1.0  0.6821003032476454  0.2513985143350554  0.6025163296148435  1.0000
  Al  Al11      1.0  0.7481340814652222  0.6808036239144496  0.3536530849745605  1.0000
  Al  Al12      1.0  0.7491649566458914  0.1836137603441134  0.8487413095081491  1.0000
  Al  Al13      1.0  0.7460663798377549  0.3144670462593087  0.3475844936859543  1.0000
  Al  Al14      1.0  0.7513378386648125  0.8199911495540371  0.8606116251182981  1.0000
  Al  Al15      1.0  0.8220486586792731  0.2505487030361529  0.08959808197726474  1.0000
  Al  Al16      1.0  0.8193213390740436  0.752610887367142  0.11359658218539981  1.0000
  H   H1        1.0  0.9957679533868429  0.2262374345741971  0.9522696991239082  1.0000
  H   H2        1.0  0.001994204105159246  0.7301298598975995  0.25286726972565937  1.0000
  H   H3        1.0  0.09588877690540018  0.16124459355668905  0.6098946376556573  1.0000
  H   H4        1.0  0.09282193080564426  0.3268374329241058  0.5770293191692767  1.0000
  H   H5        1.0  0.09681061917589594  0.6602953374813036  0.6045443383139023  1.0000
  H   H6        1.0  0.09976390742968208  0.8594861269591618  0.6715804865143489  1.0000
  H   H7        1.0  0.1913917586955848  0.9106956511766222  0.3500227724025648  1.0000
  H   H8        1.0  0.17939260777445568  0.10716903757970395  0.3282543051723033  1.0000
  H   H9        1.0  0.1604234664633225  0.601541179520336  0.8930256447421202  1.0000
  H   H10       1.0  0.16873566625862033  0.40194424162329784  0.8724228305533246  1.0000
  H   H11       1.0  0.24215981834338  0.004135814780973801  0.002361702681440203  1.0000
  H   H12       1.0  0.22377443441752654  0.49243854362931705  0.21856249284288648  1.0000
  H   H13       1.0  0.28283426699620795  0.9950109799589762  0.7136885117996232  1.0000
  H   H14       1.0  0.2615808832206295  0.4977012438398998  0.5047942899125354  1.0000
  H   H15       1.0  0.36121286882858106  0.09437576034707836  0.39875040388134975  1.0000
  H   H16       1.0  0.3449771123915409  0.8981819747895478  0.37170334271510735  1.0000
  H   H17       1.0  0.3265391016837259  0.3944177449809967  0.8336494718914461  1.0000
  H   H18       1.0  0.32731284394269056  0.5935009527403446  0.8480562688538027  1.0000
  H   H19       1.0  0.40505021043279804  0.6753265240185972  0.13586698240541764  1.0000
  H   H20       1.0  0.40470954666731945  0.8247208011975049  0.0983248305803993  1.0000
  H   H21       1.0  0.4007164807077977  0.1549559493852298  0.07932994509295614  1.0000
  H   H22       1.0  0.39717887293943066  0.336799937924293  0.11774758914017162  1.0000
  H   H23       1.0  0.49463017760501227  0.7710197496199312  0.7469593893399843  1.0000
  H   H24       1.0  0.4944481159988179  0.27218776192859545  0.4603590612348035  1.0000
  H   H25       1.0  0.49925243897845817  0.7199807419972257  0.4840270285583864  1.0000
  H   H26       1.0  0.49417567491139136  0.23058049157306948  0.738055162751338  1.0000
  H   H27       1.0  0.6011902355437179  0.6775836155675212  0.12702365491628104  1.0000
  H   H28       1.0  0.604330447110074  0.8348710176287714  0.07351599128072593  1.0000
  H   H29       1.0  0.5928823886430284  0.15987736313566342  0.08317253915501832  1.0000
  H   H30       1.0  0.5947335036763053  0.3331445322213762  0.10966356304024259  1.0000
  H   H31       1.0  0.6763389757822443  0.3924033377719744  0.820573940265079  1.0000
  H   H32       1.0  0.6795382488210444  0.5949902085823539  0.8392779053194814  1.0000
  H   H33       1.0  0.6435379692792512  0.09961736538929199  0.4130470830403617  1.0000
  H   H34       1.0  0.6469599325993988  0.8991011448545099  0.40813653216324947  1.0000
  H   H35       1.0  0.7305424310585935  0.507059986348348  0.4822980476899309  1.0000
  H   H36       1.0  0.7262503005688212  0.005118463621505143  0.7319715673930052  1.0000
  H   H37       1.0  0.772550349533443  0.49854072411282463  0.2131886522651308  1.0000
  H   H38       1.0  0.7770125884399515  0.9993153690533083  0.00024855806184609364  1.0000
  H   H39       1.0  0.8689147738362698  0.5982935554560976  0.9082621077763003  1.0000
  H   H40       1.0  0.8599284425411668  0.39627185544876775  0.9099061574221847  1.0000
  H   H41       1.0  0.815579616723415  0.9088189841831655  0.357802180768246  1.0000
  H   H42       1.0  0.8248834025780102  0.11028700232845035  0.324458357992736  1.0000
  H   H43       1.0  0.8984795340164925  0.14486729697404996  0.6232256624152931  1.0000
  H   H44       1.0  0.8996489161914678  0.31720957566523156  0.5713134098610411  1.0000
  H   H45       1.0  0.9007588414864861  0.6649450606034415  0.5777191464575318  1.0000
  H   H46       1.0  0.9005475995141616  0.8396687643658836  0.6503924718905167  1.0000
  H   H47       1.0  0.9975868932451009  0.2708047079279182  0.22642542185843859  1.0000
  H   H48       1.0  0.006624715349010213  0.7602473119824779  0.9755835787450831  1.0000
  H   H49       1.0  0.28523859941619467  0.7490981681364527  0.009508049687750798  1.0000
  H   H50       1.0  0.2164124188780787  0.7449117320111915  0.5178455866581423  1.0000
  H   H51       1.0  0.24890665258021585  0.7239472274849456  0.7986634621245116  1.0000
  H   H52       1.0  0.26784208410000765  0.7697749952846089  0.2606995803883962  1.0000
  H   H53       1.0  0.7841872241925861  0.7447981316577851  0.7094262160915417  1.0000
  H   H54       1.0  0.7228224871841675  0.7637555433029908  0.20212981565224428  1.0000
  H   H55       1.0  0.7664423950864867  0.7785757142245726  0.45389913109485824  1.0000
  H   H56       1.0  0.7255971932923505  0.7338185134374108  0.9724883078458664  1.0000
  H   H57       1.0  0.2803335176466106  0.24808063177774134  0.15632745680897925  1.0000
  H   H58       1.0  0.21439413481816513  0.24714034416147218  0.6703358976693542  1.0000
  H   H59       1.0  0.23240952578413976  0.28779586178798633  0.9095177978478489  1.0000
  H   H60       1.0  0.24104808734526265  0.2175663858628739  0.4428469660833884  1.0000
  H   H61       1.0  0.7289273528941821  0.2105649897824656  0.4261603004350336  1.0000
  H   H62       1.0  0.7572448081088146  0.2857183656437523  0.9232740239348229  1.0000
  H   H63       1.0  0.7803991227065834  0.24528488869520043  0.6721180204576006  1.0000
  H   H64       1.0  0.7166329491227592  0.2511203891252831  0.16922062486240788  1.0000
  C   C1        1.0  0.9978291905970298  0.20988373481376105  0.8506057577429879  1.0000
  C   C2        1.0  0.9979382411375544  0.6712649861557213  0.6061089913433056  1.0000
  C   C3        1.0  0.004806928186582349  0.7144290121858441  0.35102038975844446  1.0000
  C   C4        1.0  0.0011298369354714379  0.849392896081948  0.6540088349268472  1.0000
  C   C5        1.0  0.052654870938966834  0.16986062080786268  0.6571055416222098  1.0000
  C   C6        1.0  0.05473923317750372  0.1969890227861298  0.782102990345675  1.0000
  C   C7        1.0  0.05318012481135553  0.2959209737465825  0.3957976861965239  1.0000
  C   C8        1.0  0.05129853889251245  0.3169124485946064  0.5234080112986262  1.0000
  C   C9        1.0  0.05621939257460005  0.8051225502549215  0.82302446884516  1.0000
  C   C10       1.0  0.05817629156823768  0.6999532280347488  0.4181501111220496  1.0000
  C   C11       1.0  0.055892602749227104  0.6765967922126351  0.5490512130817066  1.0000
  C   C12       1.0  0.059192370449892506  0.8400221061811982  0.710376235835046  1.0000
  C   C13       1.0  0.12071293924303846  0.7094165679232609  0.34654475899636766  1.0000
  C   C14       1.0  0.11396976240111517  0.20629967902813873  0.8495531493947132  1.0000
  C   C15       1.0  0.11336798920769812  0.2863792375717519  0.32943844020862  1.0000
  C   C16       1.0  0.11726908196954168  0.7970704687345621  0.8909339284098737  1.0000
  C   C17       1.0  0.20487638559610238  0.9533159495571004  0.29554658956626895  1.0000
  C   C18       1.0  0.19458587066515726  0.010733884757101088  0.35600714163548014  1.0000
  C   C19       1.0  0.19539990066962576  0.06572149456914109  0.28731031959809566  1.0000
  C   C20       1.0  0.16023869870749666  0.5038895626030465  0.8662489779448246  1.0000
  C   C21       1.0  0.16899641700803106  0.5570186806910161  0.9356713475502607  1.0000
  C   C22       1.0  0.17206796880568684  0.4448345417090292  0.9258925610367796  1.0000
  C   C23       1.0  0.2141376559141597  0.9493122940383182  0.16522096149289148  1.0000
  C   C24       1.0  0.21296032047130906  0.06303414122133934  0.15774892603784654  1.0000
  C   C25       1.0  0.2129542996794148  0.8891117836367779  0.09324098686951465  1.0000
  C   C26       1.0  0.19427558622063512  0.44513236605963385  0.050677358243641064  1.0000
  C   C27       1.0  0.19864472673458916  0.38373399137681724  0.11908459183995013  1.0000
  C   C28       1.0  0.20515572085814748  0.6135050196094842  0.12731148256681243  1.0000
  C   C29       1.0  0.2259851454142959  0.005930812610123559  0.10173505015518784  1.0000
  C   C30       1.0  0.21209876751633067  0.12020781307536993  0.07114641152917556  1.0000
  C   C31       1.0  0.19488258237387643  0.5556547630811911  0.059507023356341615  1.0000
  C   C32       1.0  0.20469607653292637  0.4991329924129356  0.11879676709981635  1.0000
  C   C33       1.0  0.3019374317627484  0.9942676968104038  0.6158059151634115  1.0000
  C   C34       1.0  0.2811349413820705  0.4978673742226707  0.6010140658085178  1.0000
  C   C35       1.0  0.28892429921551577  0.3833907691472068  0.5806297982256748  1.0000
  C   C36       1.0  0.31852626646441684  0.9387712291822292  0.5570240552026392  1.0000
  C   C37       1.0  0.2977394084402885  0.8822490330326962  0.629388921176553  1.0000
  C   C38       1.0  0.3034747513539717  0.11381616157975138  0.6352876364381616  1.0000
  C   C39       1.0  0.2940319777714302  0.6150634613827143  0.5903297963957719  1.0000
  C   C40       1.0  0.3144344228607907  0.0522190696042669  0.5675330701736346  1.0000
  C   C41       1.0  0.29374539579527836  0.4412592055064596  0.6577074031133363  1.0000
  C   C42       1.0  0.29781657967447966  0.5551159328636536  0.6620877358166142  1.0000
  C   C43       1.0  0.3421501513892539  0.05178702247202182  0.44459637309228706  1.0000
  C   C44       1.0  0.33446420816415845  0.9404516553721622  0.4277554961469147  1.0000
  C   C45       1.0  0.3468603099977349  0.9967833085139591  0.37090517490630476  1.0000
  C   C46       1.0  0.3187237234645934  0.43805250723549843  0.7848007707831725  1.0000
  C   C47       1.0  0.3229677168278699  0.49335931222032126  0.8518820786529436  1.0000
  C   C48       1.0  0.3189410522890909  0.552774985736404  0.7868088122144755  1.0000
  C   C49       1.0  0.3863609299599686  0.7063136326521251  0.38591418745816164  1.0000
  C   C50       1.0  0.3842084162039181  0.2084848174278916  0.834409018724184  1.0000
  C   C51       1.0  0.3802976327502652  0.29494815915276534  0.3678283394355774  1.0000
  C   C52       1.0  0.3869825498283646  0.7922097937895143  0.8397333417972852  1.0000
  C   C53       1.0  0.4474312435124949  0.6774397668159668  0.18968245454111549  1.0000
  C   C54       1.0  0.4489835454152226  0.822191625838513  0.04714861660739063  1.0000
  C   C55       1.0  0.447855403736866  0.7993013293426351  0.9139599017997819  1.0000
  C   C56       1.0  0.44613205746863205  0.6946951999422343  0.3197250367472076  1.0000
  C   C57       1.0  0.4428631460886615  0.16749523699533148  0.02094565223437269  1.0000
  C   C58       1.0  0.4435390005422083  0.1895996566627721  0.8946998965539639  1.0000
  C   C59       1.0  0.4426634511882185  0.30404800775516305  0.29949094956071526  1.0000
  C   C60       1.0  0.4389287052319029  0.3266716385446009  0.1730531673813149  1.0000
  C   C61       1.0  0.5028705216867424  0.6644062959810476  0.12957706799155472  1.0000
  C   C62       1.0  0.5016268617653569  0.791260692018347  0.8413506749633946  1.0000
  C   C63       1.0  0.5068413812835431  0.830528785960625  0.10412802562285918  1.0000
  C   C64       1.0  0.4970356340049822  0.2887351404739044  0.3623586740170584  1.0000
  C   C65       1.0  0.5014267456409691  0.701777822774774  0.3902502714465617  1.0000
  C   C66       1.0  0.4984142106781593  0.1625591814834178  0.08978316095115801  1.0000
  C   C67       1.0  0.49891501957328394  0.21027634232878775  0.8361322011105009  1.0000
  C   C68       1.0  0.49594479781526546  0.33164882083548725  0.11199156776217097  1.0000
  C   C69       1.0  0.558588130963901  0.6788184536372156  0.18720448770265605  1.0000
  C   C70       1.0  0.557425676769243  0.694495775160504  0.3157004438820385  1.0000
  C   C71       1.0  0.55967122003641  0.8049419076251441  0.8972300671940566  1.0000
  C   C72       1.0  0.5618102396933813  0.8230345044440106  0.0241197056561781  1.0000
  C   C73       1.0  0.5559082761976906  0.2999960026722007  0.3017382819418841  1.0000
  C   C74       1.0  0.5557792021581845  0.19700412654675958  0.8987166497781488  1.0000
  C   C75       1.0  0.5542708470134391  0.1724639084324029  0.027649653167164737  1.0000
  C   C76       1.0  0.5507088210797089  0.3256557468380553  0.1760501192290306  1.0000
  C   C77       1.0  0.6162502263007295  0.20670649122704426  0.8333944211386118  1.0000
  C   C78       1.0  0.621725825496302  0.7013832375021655  0.3817730467512315  1.0000
  C   C79       1.0  0.6195995476910755  0.7999970690426803  0.8202292114311985  1.0000
  C   C80       1.0  0.6168635928560041  0.2957689317695731  0.3738240698905649  1.0000
  C   C81       1.0  0.6831315117189972  0.43988935252261424  0.7761604881522735  1.0000
  C   C82       1.0  0.6739815276220185  0.49587064062348896  0.842548640209075  1.0000
  C   C83       1.0  0.6850387443977337  0.5526484639863952  0.7859870769760939  1.0000
  C   C84       1.0  0.6424474876989036  0.9975247980292652  0.3882771091901508  1.0000
  C   C85       1.0  0.6522395951553754  0.05471521041185877  0.45245895286012794  1.0000
  C   C86       1.0  0.6591234898104819  0.944322462719718  0.4525276818992966  1.0000
  C   C87       1.0  0.7038871417977451  0.44541404913888744  0.648388381809013  1.0000
  C   C88       1.0  0.7088844806967503  0.5590042561892207  0.6554296997631475  1.0000
  C   C89       1.0  0.7166408299792737  0.3873416213077406  0.5715468974781057  1.0000
  C   C90       1.0  0.6895629535193968  0.9474621157804445  0.57262067411821  1.0000
  C   C91       1.0  0.7098586108263587  0.8852561079964271  0.6215258582827117  1.0000
  C   C92       1.0  0.7006750132727233  0.11741511087516358  0.6338665630233669  1.0000
  C   C93       1.0  0.713698005899709  0.50227220229147  0.5814685175742791  1.0000
  C   C94       1.0  0.6831199816806316  0.056644390971507724  0.56993357095935  1.0000
  C   C95       1.0  0.7137828360663095  0.6182106916260582  0.5884322210453922  1.0000
  C   C96       1.0  0.7058957821185913  0.002503748826885238  0.6323487673952177  1.0000
  C   C97       1.0  0.8042288973793126  0.49904701703782445  0.12948325811605854  1.0000
  C   C98       1.0  0.788118938447943  0.0019872656828652246  0.09628620669118468  1.0000
  C   C99       1.0  0.8142659003553568  0.4435257561942355  0.06205789953504636  1.0000
  C   C100      1.0  0.7917943537285057  0.8875556860095533  0.08658030914516572  1.0000
  C   C101      1.0  0.8012445981418732  0.38369905923933456  0.1313481070156327  1.0000
  C   C102      1.0  0.8010326090871478  0.6161028421181819  0.1362512868257733  1.0000
  C   C103      1.0  0.7898717596700499  0.1182192117546301  0.07850676823763325  1.0000
  C   C104      1.0  0.8189854994539743  0.5568438036638529  0.07269265047300527  1.0000
  C   C105      1.0  0.795588355675853  0.94771954690963  0.16263530315254776  1.0000
  C   C106      1.0  0.7962017139253188  0.05943635225304095  0.15342043818716533  1.0000
  C   C107      1.0  0.854066216331097  0.55523773363094  0.9507185183249649  1.0000
  C   C108      1.0  0.8464589124588835  0.44254406387645856  0.9491196758848991  1.0000
  C   C109      1.0  0.8640460722205633  0.49931143562273733  0.8958177443746929  1.0000
  C   C110      1.0  0.8105826183226921  0.9512961900480025  0.29491473254741224  1.0000
  C   C111      1.0  0.8194774327259229  0.008296006224831398  0.3494066247397848  1.0000
  C   C112      1.0  0.8150943922128085  0.06520722040322857  0.2818299827217341  1.0000
  C   C113      1.0  0.8840451600099413  0.20790380513915369  0.8647525145609026  1.0000
  C   C114      1.0  0.8864237113950262  0.707335405839455  0.3391431153876497  1.0000
  C   C115      1.0  0.8845040410559935  0.7912544374032849  0.8856306416905778  1.0000
  C   C116      1.0  0.8812205595222969  0.28295168806820237  0.3274156430615184  1.0000
  C   C117      1.0  0.9423928346127011  0.16262026054625575  0.6694623282498339  1.0000
  C   C118      1.0  0.9412161197557254  0.31027861285385827  0.5273541582771949  1.0000
  C   C119      1.0  0.9430608565596386  0.29344680777099885  0.3972545672030428  1.0000
  C   C120      1.0  0.9438736369458886  0.1925512770581735  0.7858634112719519  1.0000
  C   C121      1.0  0.9431152347140231  0.6796331897766666  0.5352795095003307  1.0000
  C   C122      1.0  0.9470852839492006  0.7004986119932705  0.4123138462018682  1.0000
  C   C123      1.0  0.9447872605662209  0.8022202280467142  0.8251151907915619  1.0000
  C   C124      1.0  0.9432969235257308  0.8304487385968347  0.7060800747405674  1.0000
  C   C125      1.0  0.9966444048236521  0.15243300345431238  0.6023530844436961  1.0000
  C   C126      1.0  0.9981497790259185  0.28486232635131287  0.32971681488776794  1.0000
  C   C127      1.0  0.9959031584734204  0.32134936240665274  0.5915591745328108  1.0000
  C   C128      1.0  0.0013621523179665079  0.7861239045082453  0.8838286224542504  1.0000
  N   N1        1.0  0.0008438388637785269  0.8844285437445778  0.5263766682609388  1.0000
  N   N2        1.0  0.5125850470319092  0.8486686700008065  0.24085587259216942  1.0000
  N   N3        1.0  0.9997892457437908  0.12448227239986392  0.4631330484930198  1.0000
  N   N4        1.0  0.4951570493362402  0.15242699769171084  0.2300518558405748  1.0000
  N   N5        1.0  0.9954291312864747  0.6536202188569544  0.7468540901849219  1.0000
  N   N6        1.0  0.9958583535373006  0.3404741862436169  0.7288934862721078  1.0000
  N   N7        1.0  0.33664822138922057  0.49516582744442417  0.995468747095293  1.0000
  N   N8        1.0  0.1445394246339268  0.503761139746688  0.7263217367218631  1.0000
  N   N9        1.0  0.17577713287853772  0.01406125316955695  0.48888242643097074  1.0000
  N   N10       1.0  0.8329214769404069  0.008232424542517824  0.48745470178754263  1.0000
  N   N11       1.0  0.5955737487253193  0.9930955661906109  0.28132052829446375  1.0000
  N   N12       1.0  0.50027176066434  0.6465437483273534  0.9955520669277299  1.0000
  N   N13       1.0  0.8872895403368862  0.5047070056249171  0.758684959236222  1.0000
  N   N14       1.0  0.6543714246579512  0.4963960435075119  0.9855166221518106  1.0000
  N   N15       1.0  0.37499067744427206  0.9983801778815509  0.23513591686114643  1.0000
  N   N16       1.0  0.5028155197484824  0.3521650759429553  0.9761850172584259  1.0000
  O   O1        1.0  0.11418604503252004  0.2583402556432991  0.21909186603128616  1.0000
  O   O2        1.0  0.11778810130188351  0.7686668970319924  0.0028954793013986624  1.0000
  O   O3        1.0  0.1236825240458248  0.7468027835217633  0.25255255582215996  1.0000
  O   O4        1.0  0.11205479372198114  0.23285973587985123  0.9599710603274593  1.0000
  O   O5        1.0  0.16302719167140955  0.6762249081630579  0.39210702944082615  1.0000
  O   O6        1.0  0.16142927265570967  0.1755036179763888  0.8010730724546944  1.0000
  O   O7        1.0  0.16085985155811783  0.3121568596998849  0.3799416286186804  1.0000
  O   O8        1.0  0.16342201470410067  0.8207971035369367  0.840230941205025  1.0000
  O   O9        1.0  0.19444084068844253  0.8376388094385858  0.14617415354224916  1.0000
  O   O10       1.0  0.17724339386669483  0.16151987517917937  0.11191148526199042  1.0000
  O   O11       1.0  0.1746444496522969  0.6595553220400788  0.08270514676390064  1.0000
  O   O12       1.0  0.1680554686578109  0.33752552466782987  0.07177534165818589  1.0000
  O   O13       1.0  0.23490443278715067  0.2505048411046654  0.9617397768542577  1.0000
  O   O14       1.0  0.24366717235941263  0.11780425128476595  0.9658749822903623  1.0000
  O   O15       1.0  0.23791427428867712  0.8916962802275903  0.9800077517374429  1.0000
  O   O16       1.0  0.22758904096416385  0.38443692277845964  0.22528414824748022  1.0000
  O   O17       1.0  0.24274691423064387  0.2559803403688462  0.21856916153390551  1.0000
  O   O18       1.0  0.2411503213826561  0.6156564713402921  0.2267696112986316  1.0000
  O   O19       1.0  0.24569680934160912  0.733318673238677  0.23373104757001947  1.0000
  O   O20       1.0  0.2566700954950084  0.7364889094841269  0.4876617600840615  1.0000
  O   O21       1.0  0.2422515790604583  0.7586327139811897  0.9803266090769829  1.0000
  O   O22       1.0  0.25080786187718135  0.7575571394814505  0.7333750183503716  1.0000
  O   O23       1.0  0.25318853945420644  0.238821091328938  0.7109194974407615  1.0000
  O   O24       1.0  0.27161394024460045  0.8852333180771769  0.739835111472582  1.0000
  O   O25       1.0  0.2693712268212901  0.11364618100287294  0.7344168834509965  1.0000
  O   O26       1.0  0.2741895209138976  0.6157373348937649  0.4752171425077307  1.0000
  O   O27       1.0  0.25623969273876884  0.38283915425897963  0.4774028734134373  1.0000
  O   O28       1.0  0.25703363329445206  0.25808581570234124  0.46883966005107697  1.0000
  O   O29       1.0  0.32456450892859956  0.15912478075543132  0.5706754148136598  1.0000
  O   O30       1.0  0.31698743361047504  0.8342551590541755  0.5637890988145556  1.0000
  O   O31       1.0  0.32100932854174863  0.33753225271947557  0.6248896114196562  1.0000
  O   O32       1.0  0.31457616002460315  0.6604596204029516  0.6552261572269216  1.0000
  O   O33       1.0  0.3396343100175553  0.6841570767417272  0.32533962250349335  1.0000
  O   O34       1.0  0.3350958958045262  0.18848704227194413  0.8853245202509067  1.0000
  O   O35       1.0  0.33176924636932104  0.319076980301075  0.31597906788524693  1.0000
  O   O36       1.0  0.33961361004982976  0.8207507572388981  0.8821224979082286  1.0000
  O   O37       1.0  0.3845389598639235  0.2623104843312289  0.47239814207020203  1.0000
  O   O38       1.0  0.3852257960111035  0.758871532385824  0.7384945784605226  1.0000
  O   O39       1.0  0.382674861647521  0.7312241995588314  0.4934215669191986  1.0000
  O   O40       1.0  0.3839648854324374  0.24197200434449118  0.7235024879304064  1.0000
  O   O41       1.0  0.6227162527209191  0.7716022713207542  0.7158395963622451  1.0000
  O   O42       1.0  0.6154922728130696  0.2652295646659913  0.4833061240446288  1.0000
  O   O43       1.0  0.62133020489905  0.24874892769296192  0.746403125047954  1.0000
  O   O44       1.0  0.6209363582578117  0.7281552622096233  0.4877690344289573  1.0000
  O   O45       1.0  0.662213100135527  0.17354826401428333  0.87128564799125  1.0000
  O   O46       1.0  0.6663694400335225  0.6762826427576126  0.31441500954708523  1.0000
  O   O47       1.0  0.6676364780417463  0.821944540379603  0.8812037125516967  1.0000
  O   O48       1.0  0.6624937245162673  0.3218191370356972  0.3193633645486709  1.0000
  O   O49       1.0  0.6950945332871455  0.33957355267024186  0.6244662902091631  1.0000
  O   O50       1.0  0.6884483450022403  0.6629341014582499  0.650126737068117  1.0000
  O   O51       1.0  0.6728504931208066  0.16496774611941686  0.5864122954905828  1.0000
  O   O52       1.0  0.6914967142175302  0.8359621395266511  0.5573520890257911  1.0000
  O   O53       1.0  0.7510445459056823  0.7399242835921196  0.4876320779091387  1.0000
  O   O54       1.0  0.7394887277388897  0.6185281636569961  0.48020044944414825  1.0000
  O   O55       1.0  0.7418567780069536  0.38993125414929436  0.46167947757869715  1.0000
  O   O56       1.0  0.742084085878994  0.8825641507895753  0.7223225390159616  1.0000
  O   O57       1.0  0.7417503493104397  0.12091226965491056  0.7240997112179014  1.0000
  O   O58       1.0  0.7429008007095582  0.7581130639461126  0.7387475240257643  1.0000
  O   O59       1.0  0.742655452961011  0.2444964249555724  0.7264350414105725  1.0000
  O   O60       1.0  0.7605439046182823  0.24577212577363383  0.9670032557193607  1.0000
  O   O61       1.0  0.7372435286277979  0.251410747848258  0.4615785158861813  1.0000
  O   O62       1.0  0.7549881040880794  0.2603642551222095  0.21544271251540315  1.0000
  O   O63       1.0  0.7633260008715224  0.3790420851662157  0.22200314935570697  1.0000
  O   O64       1.0  0.7598026880501904  0.7471521769499024  0.23551887085701875  1.0000
  O   O65       1.0  0.7650179285876381  0.6139147873369373  0.2298256839929275  1.0000
  O   O66       1.0  0.7532474770038016  0.11892260263697281  0.9827557733984634  1.0000
  O   O67       1.0  0.7643812004215579  0.8918337608865532  0.9783740272120877  1.0000
  O   O68       1.0  0.7525716859528276  0.7658625775377484  0.0015509726264919532  1.0000
  O   O69       1.0  0.8233089949989423  0.6646796542765502  0.08294548933743032  1.0000
  O   O70       1.0  0.8322100424248056  0.337876060568693  0.08433687378637442  1.0000
  O   O71       1.0  0.8217293213933273  0.8426774677807322  0.13909286612783173  1.0000
  O   O72       1.0  0.8185265125465843  0.16597619116691867  0.1183728104525154  1.0000
  O   O73       1.0  0.8353948758115479  0.1800837393879671  0.8219086815859273  1.0000
  O   O74       1.0  0.8429726495543923  0.6745405765231434  0.3850954974657953  1.0000
  O   O75       1.0  0.8370775485792157  0.8158148619277862  0.8343167853140511  1.0000
  O   O76       1.0  0.8353005275515495  0.309679235241703  0.3811556233641731  1.0000
  O   O77       1.0  0.8841842160278554  0.7595293298103858  0.9919325810347818  1.0000
  O   O78       1.0  0.881935740480846  0.25191173381825177  0.22210321852629408  1.0000
  O   O79       1.0  0.8877962912064428  0.24338581502853818  0.9611796184502475  1.0000
  O   O80       1.0  0.8856331480002054  0.7457457942305281  0.24534091558006335  1.0000
  O   O81       1.0  0.9523583904540507  0.8874690973659826  0.45790150792506423  1.0000
  O   O82       1.0  0.048866520589780214  0.911240238378457  0.49892329036720917  1.0000
  O   O83       1.0  0.4651676313777604  0.8476811619355178  0.30489188108940296  1.0000
  O   O84       1.0  0.5651433367882498  0.8540568208718562  0.2941318714896859  1.0000
  O   O85       1.0  0.05250731325068976  0.11576341858373229  0.4222444506954125  1.0000
  O   O86       1.0  0.9514678324856789  0.11700721299412001  0.4026392946080629  1.0000
  O   O87       1.0  0.4450591629316758  0.16081242367616938  0.27698395341900295  1.0000
  O   O88       1.0  0.5406125309389143  0.14364679426414348  0.3002991223463115  1.0000
  O   O89       1.0  0.9445519962246477  0.6610831813307688  0.801390049677389  1.0000
  O   O90       1.0  0.04434131595892119  0.6330117186156939  0.7940595429767818  1.0000
  O   O91       1.0  0.9439226930761915  0.34197727767961233  0.7836704325061051  1.0000
  O   O92       1.0  0.046584729904380784  0.35563308628777324  0.7739088445021362  1.0000
  O   O93       1.0  0.33853481246847006  0.5460914211672936  0.04984320724912592  1.0000
  O   O94       1.0  0.340881767616688  0.44599966552578146  0.053911382348123954  1.0000
  O   O95       1.0  0.15368878907082542  0.5525840074392865  0.66529404614508  1.0000
  O   O96       1.0  0.11847161524604154  0.4571528298774378  0.6795027876408068  1.0000
  O   O97       1.0  0.15942128208797055  0.06431733409680973  0.5360712880162831  1.0000
  O   O98       1.0  0.16645855815705646  0.9666448006977638  0.5488540879721742  1.0000
  O   O99       1.0  0.8416212737694178  0.05968073489962934  0.544061783638885  1.0000
  O   O100      1.0  0.8386869764832244  0.9590312966280444  0.5498475415192302  1.0000
  O   O101      1.0  0.545534871215398  0.02086982640013208  0.3101449683008751  1.0000
  O   O102      1.0  0.602608640532523  0.9599033055920245  0.18405563735387714  1.0000
  O   O103      1.0  0.45124905450813885  0.6281747835938126  0.9488509443231108  1.0000
  O   O104      1.0  0.5511739059525907  0.6473484119876433  0.9406315371985936  1.0000
  O   O105      1.0  0.8511642530122502  0.5279251247985384  0.6780855617716307  1.0000
  O   O106      1.0  0.9416899915260574  0.4917539593323164  0.7432100628493334  1.0000
  O   O107      1.0  0.6557115321608415  0.5454789245774021  0.052098519940495976  1.0000
  O   O108      1.0  0.6320108476594439  0.4465681978590936  0.027033380357288195  1.0000
  O   O109      1.0  0.39369823002361237  0.049749237843041506  0.1989696322152366  1.0000
  O   O110      1.0  0.36987722792928834  0.9505503327807886  0.17177445897520005  1.0000
  O   O111      1.0  0.4546292843109772  0.3737445495059971  0.9314625333083557  1.0000
  O   O112      1.0  0.5537534899835288  0.3473064859998038  0.9202665519699397  1.0000
