data_image0
_chemical_formula_structural       Al16H64C128N16O112
_chemical_formula_sum              "Al16 H64 C128 N16 O112"
_cell_length_a       21.62769
_cell_length_b       21.646490000000004
_cell_length_c       10.3079
_cell_angle_alpha    89.86891
_cell_angle_beta     90.04471
_cell_angle_gamma    90.32585

_space_group_name_H-M_alt    "P 1"
_space_group_IT_number       1

loop_
  _space_group_symop_operation_xyz
  'x, y, z'

loop_
  _atom_site_type_symbol
  _atom_site_label
  _atom_site_symmetry_multiplicity
  _atom_site_fract_x
  _atom_site_fract_y
  _atom_site_fract_z
  _atom_site_occupancy
  Al  Al1       1.0  0.17980893448138924  0.2527688953583604  0.09297960503178215  1.0000
  Al  Al2       1.0  0.1825249311691165  0.7516403971329644  0.12028761050598545  1.0000
  Al  Al3       1.0  0.2488715056993913  0.1828798690097459  0.8538858185166035  1.0000
  Al  Al4       1.0  0.2508054655732744  0.678232899337859  0.37285830489608013  1.0000
  Al  Al5       1.0  0.2566076967432082  0.8205299621192244  0.8771558491175032  1.0000
  Al  Al6       1.0  0.2542212550377288  0.31999062187684596  0.34192609480429714  1.0000
  Al  Al7       1.0  0.32172125892217185  0.7468432356238814  0.6201198452053305  1.0000
  Al  Al8       1.0  0.32167676989868227  0.24478735976173382  0.5879006340145565  1.0000
  Al  Al9       1.0  0.6851871732132697  0.7507915111097809  0.6070700579859422  1.0000
  Al  Al10      1.0  0.6768449782474903  0.2508026666548165  0.5973933507576527  1.0000
  Al  Al11      1.0  0.752615594900269  0.6844478355186391  0.3482473105442773  1.0000
  Al  Al12      1.0  0.7474222753830613  0.1828211119247899  0.8549561492459573  1.0000
  Al  Al13      1.0  0.7532002908947728  0.3259566486765781  0.34669864044832455  1.0000
  Al  Al14      1.0  0.7537032626214156  0.822513235416311  0.8568597656116084  1.0000
  Al  Al15      1.0  0.8235441819065416  0.25142032850757623  0.10377577826186249  1.0000
  Al  Al16      1.0  0.8306258767539632  0.7594468753167329  0.10814673463422692  1.0000
  H   H1        1.0  0.9982861715730322  0.2321995526521758  0.9573455227491581  1.0000
  H   H2        1.0  0.0027913232880961347  0.7234643374110736  0.24064447198244127  1.0000
  H   H3        1.0  0.09602362652905225  0.1538334759565834  0.6340791151804096  1.0000
  H   H4        1.0  0.10413647049350519  0.33686659267525426  0.5761819695216754  1.0000
  H   H5        1.0  0.10017164834199757  0.6706300628503038  0.6153550276370461  1.0000
  H   H6        1.0  0.10826257755700779  0.8463057914731239  0.6230222110715251  1.0000
  H   H7        1.0  0.19239747979212846  0.9002852076461294  0.3498506068627935  1.0000
  H   H8        1.0  0.157712277980484  0.10398083747199363  0.3204898523697222  1.0000
  H   H9        1.0  0.15029373483516087  0.6017464968926736  0.9137325473605792  1.0000
  H   H10       1.0  0.1664477604261007  0.4060863422522734  0.8679650521700858  1.0000
  H   H11       1.0  0.2430714640376713  0.9974716125609582  0.007989218364101047  1.0000
  H   H12       1.0  0.23591992342624027  0.4946818718641475  0.22610428082692038  1.0000
  H   H13       1.0  0.270854310764159  0.001245403486777677  0.7134776195393413  1.0000
  H   H14       1.0  0.26344067113404807  0.5046078199842755  0.5097651170640725  1.0000
  H   H15       1.0  0.32209334759241426  0.09015437889558924  0.3623962239668087  1.0000
  H   H16       1.0  0.3652438648787844  0.8982244157414663  0.4229930282396208  1.0000
  H   H17       1.0  0.3313999948930368  0.39194315733073215  0.8314811422529507  1.0000
  H   H18       1.0  0.32114794496266236  0.5884546675337228  0.8645184118798133  1.0000
  H   H19       1.0  0.39225379480160477  0.654403643670665  0.15137835286507959  1.0000
  H   H20       1.0  0.4091434230028188  0.8314137880900719  0.08899373597672602  1.0000
  H   H21       1.0  0.39378332410879274  0.15640377377307332  0.07665479396687984  1.0000
  H   H22       1.0  0.40133237749571177  0.31958436870818047  0.12048438539767416  1.0000
  H   H23       1.0  0.504384971021196  0.7686917726040893  0.7494304905505209  1.0000
  H   H24       1.0  0.500899491564436  0.25770889541665243  0.44987503105701504  1.0000
  H   H25       1.0  0.4969367876389049  0.7190298722119847  0.4790055071314347  1.0000
  H   H26       1.0  0.49269003899990943  0.2252223732854596  0.7470828144512586  1.0000
  H   H27       1.0  0.5895985222841267  0.6555572717549727  0.1286461162029499  1.0000
  H   H28       1.0  0.6092115409689182  0.8278910486034392  0.07959818382741875  1.0000
  H   H29       1.0  0.5970328764831646  0.17223744046739983  0.07892956945708962  1.0000
  H   H30       1.0  0.6013937101371065  0.3322716627537243  0.11303099588987772  1.0000
  H   H31       1.0  0.6631285392953973  0.4068652131548425  0.8251486273793802  1.0000
  H   H32       1.0  0.6635831549391273  0.6053549442899306  0.8138244110126004  1.0000
  H   H33       1.0  0.6384012156901752  0.09763252889882644  0.40410977978306606  1.0000
  H   H34       1.0  0.6430379301063028  0.8969732686726307  0.39053886453166015  1.0000
  H   H35       1.0  0.722961169729314  0.5018123950286363  0.49188596159804276  1.0000
  H   H36       1.0  0.7126564689132545  0.9991231364396141  0.7142700509544874  1.0000
  H   H37       1.0  0.7938544408720627  0.5091654983814786  0.2168196837053321  1.0000
  H   H38       1.0  0.7797070759655593  0.007862311504055575  0.9897605784745233  1.0000
  H   H39       1.0  0.8624149573169592  0.6111664297296902  0.8975283363810206  1.0000
  H   H40       1.0  0.8591791925087958  0.4102102601479109  0.8861690322608544  1.0000
  H   H41       1.0  0.8360774185269104  0.9095927227308811  0.33041045091634025  1.0000
  H   H42       1.0  0.826547888870837  0.1056646633869047  0.33506457927321914  1.0000
  H   H43       1.0  0.9005235461647314  0.16025252192208092  0.6149387544393918  1.0000
  H   H44       1.0  0.9094525747847406  0.32071042423879587  0.5888306767889797  1.0000
  H   H45       1.0  0.9031963715814334  0.671371430954521  0.5980431319451548  1.0000
  H   H46       1.0  0.9126171685827948  0.8585177894535088  0.613500522290519  1.0000
  H   H47       1.0  0.005003452806640852  0.2740663272150595  0.23981927434105602  1.0000
  H   H48       1.0  0.010166259204631434  0.7780436373533166  0.9560977382876058  1.0000
  H   H49       1.0  0.28259120934366655  0.7318120445709817  0.028867303372034695  1.0000
  H   H50       1.0  0.22119751858959583  0.7519413666970464  0.5493650480451328  1.0000
  H   H51       1.0  0.24427020213375386  0.7192362259310198  0.802907932617466  1.0000
  H   H52       1.0  0.26935518267237796  0.7761914998301324  0.27180834390186526  1.0000
  H   H53       1.0  0.7918479363540439  0.778860069370039  0.6808047035573315  1.0000
  H   H54       1.0  0.727770008191322  0.7548650989057426  0.16680500456119468  1.0000
  H   H55       1.0  0.7388780720268363  0.789459162891361  0.4232344806447661  1.0000
  H   H56       1.0  0.7642481818411169  0.7184544712825993  0.9289456302007592  1.0000
  H   H57       1.0  0.25645401580399785  0.216554455743399  0.25930547859823233  1.0000
  H   H58       1.0  0.2422970189605407  0.27606794867957707  0.7587547020638857  1.0000
  H   H59       1.0  0.27174509333660907  0.27632313933336616  0.9829268349274143  1.0000
  H   H60       1.0  0.22421367801521794  0.2300119699764126  0.4560790499365708  1.0000
  H   H61       1.0  0.7816111612526617  0.24007060850708878  0.4673317510435526  1.0000
  H   H62       1.0  0.7244751185063556  0.2709363518258599  0.9571294684136779  1.0000
  H   H63       1.0  0.7756278136324457  0.2633238011196127  0.6935452687934793  1.0000
  H   H64       1.0  0.7299294491144185  0.22653290443434337  0.22385065810641958  1.0000
  C   C1        1.0  0.9985301633758729  0.21363353821957232  0.8555559569665153  1.0000
  C   C2        1.0  0.0029128982970276773  0.6733877462525558  0.6022012771350908  1.0000
  C   C3        1.0  0.00487751488806909  0.7128236290815193  0.3491679993008352  1.0000
  C   C4        1.0  0.011697750451313826  0.8507945633592622  0.6191046286752034  1.0000
  C   C5        1.0  0.05530910254983242  0.1677676674004433  0.6778218293027752  1.0000
  C   C6        1.0  0.0548369549377388  0.19703067963037593  0.7982148311264137  1.0000
  C   C7        1.0  0.06051636666646252  0.3007946038279382  0.3996454627065674  1.0000
  C   C8        1.0  0.061801698881001184  0.32737412843787145  0.5253747444867533  1.0000
  C   C9        1.0  0.06468826107735313  0.8096212068990426  0.801481925108618  1.0000
  C   C10       1.0  0.06130255267081976  0.7021822943961956  0.4200141819753338  1.0000
  C   C11       1.0  0.06121218008951484  0.6834426766338199  0.5470705439397697  1.0000
  C   C12       1.0  0.06714923769210743  0.83359140791106  0.6769096971151419  1.0000
  C   C13       1.0  0.11987654510338315  0.7111159549284202  0.35781225656471444  1.0000
  C   C14       1.0  0.1151563210780494  0.20837409065431972  0.8704964393563726  1.0000
  C   C15       1.0  0.11949998733955622  0.29679422138899136  0.3278365117769727  1.0000
  C   C16       1.0  0.12143473207067017  0.8009399112192457  0.8848939123749722  1.0000
  C   C17       1.0  0.1880151782303616  0.9452333576075873  0.29856785681574516  1.0000
  C   C18       1.0  0.1696324598210026  0.0010614549146602485  0.3555823031377084  1.0000
  C   C19       1.0  0.17185159085363638  0.057760454254483805  0.28279487168654327  1.0000
  C   C20       1.0  0.16296480829697682  0.5051206038795308  0.8733134713949956  1.0000
  C   C21       1.0  0.16644119452030506  0.5585934530693237  0.9482335548906908  1.0000
  C   C22       1.0  0.17702274534819815  0.44754850911443933  0.9278039646562581  1.0000
  C   C23       1.0  0.20705732579045083  0.9461232454954104  0.17237903586728118  1.0000
  C   C24       1.0  0.1976033790672853  0.05885191021298898  0.15549508115699612  1.0000
  C   C25       1.0  0.21660623101062176  0.884902856293841  0.10698778132802104  1.0000
  C   C26       1.0  0.20680332899375592  0.44673691018841577  0.04957930015641485  1.0000
  C   C27       1.0  0.20939367949706564  0.3858104589122227  0.11677617700422309  1.0000
  C   C28       1.0  0.1987367002593146  0.6128673463186449  0.14830871092707065  1.0000
  C   C29       1.0  0.2199540473133609  0.002328481855706613  0.10354635647023586  1.0000
  C   C30       1.0  0.2048786688391842  0.11739272694789682  0.0793825970958187  1.0000
  C   C31       1.0  0.19473705933233054  0.5542918346794204  0.07087723855708546  1.0000
  C   C32       1.0  0.21385102622121913  0.49887831313501885  0.1253070655506458  1.0000
  C   C33       1.0  0.2915572440505031  0.9981532554768416  0.6208212258018989  1.0000
  C   C34       1.0  0.2812696020720538  0.49643426400595503  0.6068714369320466  1.0000
  C   C35       1.0  0.2939498646259434  0.37946827768623986  0.5803990735460588  1.0000
  C   C36       1.0  0.3131928569816657  0.9400198251486727  0.5728642937994299  1.0000
  C   C37       1.0  0.3066558658403096  0.8811662498393319  0.6476995508468676  1.0000
  C   C38       1.0  0.28311770586476587  0.1112898735637901  0.6060362711789039  1.0000
  C   C39       1.0  0.2885711565666705  0.6080905096142962  0.6080377234700554  1.0000
  C   C40       1.0  0.2968134641012668  0.05090139214761764  0.5431735302933732  1.0000
  C   C41       1.0  0.29773009986050314  0.43801132690403366  0.6569998301608216  1.0000
  C   C42       1.0  0.2988097128175835  0.5495261443656321  0.6740032314688709  1.0000
  C   C43       1.0  0.319125621412789  0.048436450987076766  0.415742453668652  1.0000
  C   C44       1.0  0.34133149608395474  0.9401238585838291  0.45189734119758596  1.0000
  C   C45       1.0  0.34194521183905724  0.9908006023581232  0.3742543401603785  1.0000
  C   C46       1.0  0.3211806688454913  0.4357070817890763  0.7852930441633162  1.0000
  C   C47       1.0  0.3314332646858435  0.4905088741623912  0.8531714963520698  1.0000
  C   C48       1.0  0.31983925887159786  0.5484549936277613  0.8001997426579092  1.0000
  C   C49       1.0  0.38370081262085826  0.6997910998579147  0.40510596910385993  1.0000
  C   C50       1.0  0.38461706397228945  0.19807099866375627  0.8222247003176811  1.0000
  C   C51       1.0  0.3851622802136512  0.28926713596325215  0.36487034422978215  1.0000
  C   C52       1.0  0.38960249682638187  0.7877702687579001  0.8501583510521442  1.0000
  C   C53       1.0  0.4337637885995782  0.6648680927516192  0.20157934208129236  1.0000
  C   C54       1.0  0.4511780559164037  0.8170960812405398  0.03971620330518251  1.0000
  C   C55       1.0  0.45083816187697096  0.797693811149975  0.9094997271891914  1.0000
  C   C56       1.0  0.4392128396526099  0.6873275988606233  0.3250199153278562  1.0000
  C   C57       1.0  0.43749038126810164  0.1642289910632055  0.027300173594279404  1.0000
  C   C58       1.0  0.4427428467632533  0.1895373838073857  0.8993432040525903  1.0000
  C   C59       1.0  0.4455656718043531  0.29163586240964257  0.29111301016888697  1.0000
  C   C60       1.0  0.4477036730597403  0.312544650092082  0.16288301679304906  1.0000
  C   C61       1.0  0.4887198747224008  0.6532548054394803  0.13672468045672861  1.0000
  C   C62       1.0  0.5032545932892605  0.7882759191915536  0.8419433308669331  1.0000
  C   C63       1.0  0.5070018002825244  0.8276148063497306  0.10271716964388257  1.0000
  C   C64       1.0  0.5024762239402533  0.2798037677517528  0.3534075783855676  1.0000
  C   C65       1.0  0.49680612179474243  0.7061502548445537  0.3759067465278861  1.0000
  C   C66       1.0  0.4938587777673096  0.15929445591673574  0.08702413798723455  1.0000
  C   C67       1.0  0.49622753926442903  0.20612514703200308  0.8405850706231321  1.0000
  C   C68       1.0  0.5015876217527405  0.3222973217426491  0.09702882277098918  1.0000
  C   C69       1.0  0.5479423093132758  0.6610599770463015  0.1892806246765848  1.0000
  C   C70       1.0  0.5497886504811093  0.6900494142811234  0.31528494776054167  1.0000
  C   C71       1.0  0.5607260581172242  0.8026775802094857  0.903179364195706  1.0000
  C   C72       1.0  0.5629827470511453  0.8203307076526127  0.035746299721191366  1.0000
  C   C73       1.0  0.5576602620145423  0.2996309331077205  0.29317604162245253  1.0000
  C   C74       1.0  0.551652783200996  0.19304480312498576  0.9011207371438319  1.0000
  C   C75       1.0  0.5518408682530763  0.1730607141132869  0.028604710808903318  1.0000
  C   C76       1.0  0.559717633182489  0.3176998440184907  0.1602397354907532  1.0000
  C   C77       1.0  0.6123178618806743  0.2092919572463453  0.8351366976734067  1.0000
  C   C78       1.0  0.6124136289765477  0.7019175588834398  0.3767954606863501  1.0000
  C   C79       1.0  0.6204278301752284  0.7904511223109038  0.8398811385780068  1.0000
  C   C80       1.0  0.6174772120170459  0.2931791066264925  0.36531283428895805  1.0000
  C   C81       1.0  0.6796458191495997  0.4469139158357321  0.7850947306414332  1.0000
  C   C82       1.0  0.6666656169422869  0.5038735100821666  0.8415302193311978  1.0000
  C   C83       1.0  0.6748497091298622  0.5607893103199001  0.7728219361480904  1.0000
  C   C84       1.0  0.6376150962444216  0.0003443137420243031  0.37930921377361826  1.0000
  C   C85       1.0  0.6444214453337282  0.055785832379374165  0.4441690394136452  1.0000
  C   C86       1.0  0.6519633690101798  0.9436173620337743  0.43513744024445533  1.0000
  C   C87       1.0  0.7025198786359929  0.4471103531963098  0.6564358028682772  1.0000
  C   C88       1.0  0.6977874040517671  0.5582671851064857  0.641635495897977  1.0000
  C   C89       1.0  0.7059846497669369  0.387144799456735  0.5802081330314124  1.0000
  C   C90       1.0  0.6825950535116466  0.942825201295427  0.5570309518748031  1.0000
  C   C91       1.0  0.6983352130446806  0.8847988514379291  0.6206464282925707  1.0000
  C   C92       1.0  0.6892506286857695  0.11632532832278092  0.6269220381022619  1.0000
  C   C93       1.0  0.7137386348731172  0.5015608606448123  0.5898318380389955  1.0000
  C   C94       1.0  0.6748346126434601  0.05433145174312329  0.5636135766162267  1.0000
  C   C95       1.0  0.7113682878011706  0.6184535947963701  0.5799790401147138  1.0000
  C   C96       1.0  0.6891585044193917  0.9983649848037007  0.6194969056447  1.0000
  C   C97       1.0  0.8077766687460775  0.5061395252262297  0.1215237883019351  1.0000
  C   C98       1.0  0.7898528331339312  0.00702970850301643  0.08813818870923659  1.0000
  C   C99       1.0  0.8193810374486113  0.4506669376563892  0.05224579187951821  1.0000
  C   C100      1.0  0.8004328988518485  0.8881153333724116  0.09384815401545392  1.0000
  C   C101      1.0  0.8032097244071016  0.38859991902474067  0.1190769113007011  1.0000
  C   C102      1.0  0.8037982249968861  0.624701586815179  0.1289627897741622  1.0000
  C   C103      1.0  0.7910404051422953  0.11909508311536353  0.08817114896198208  1.0000
  C   C104      1.0  0.8234817440747273  0.5637724545449702  0.06713724086085399  1.0000
  C   C105      1.0  0.8033391920193427  0.950653307435685  0.15457318749583454  1.0000
  C   C106      1.0  0.7980678279301043  0.06017812368197035  0.15720833811738688  1.0000
  C   C107      1.0  0.8503531903057836  0.566925828107801  0.94330224608781  1.0000
  C   C108      1.0  0.8478233385010914  0.4529139512288941  0.9286370291023384  1.0000
  C   C109      1.0  0.8649836494693924  0.51359326463531  0.880100606864911  1.0000
  C   C110      1.0  0.8204322766616445  0.9503932299589625  0.2828452128337166  1.0000
  C   C111      1.0  0.8228317844642719  0.006079917046551975  0.3533332167569232  1.0000
  C   C112      1.0  0.8150177705834039  0.06100970894053475  0.29000678744627867  1.0000
  C   C113      1.0  0.8808314650942097  0.20884489009756801  0.8651477504346191  1.0000
  C   C114      1.0  0.88934338589085  0.706925447936107  0.3372078319559172  1.0000
  C   C115      1.0  0.8904675974382635  0.8027169229574881  0.8679712910923936  1.0000
  C   C116      1.0  0.8909374426818619  0.28846703060147655  0.32796681124736266  1.0000
  C   C117      1.0  0.9434269872909052  0.17746417270016726  0.669400740356227  1.0000
  C   C118      1.0  0.9504975813903965  0.3146404703763577  0.5356219274785218  1.0000
  C   C119      1.0  0.9493992873570072  0.29384514551749175  0.40245476666944735  1.0000
  C   C120      1.0  0.9418079291625583  0.20239577915362936  0.7939284644899693  1.0000
  C   C121      1.0  0.9445787380724546  0.6814408364482047  0.5432242138973301  1.0000
  C   C122      1.0  0.9475249618176512  0.702407753225512  0.41218944319700257  1.0000
  C   C123      1.0  0.9509477876728992  0.8127555687211013  0.7929523336293893  1.0000
  C   C124      1.0  0.9511612161732297  0.8398994899716932  0.671007177963879  1.0000
  C   C125      1.0  0.9990164917086951  0.16010926268235387  0.6138396893545983  1.0000
  C   C126      1.0  0.00439110370603553  0.2851321123634103  0.3381835146152678  1.0000
  C   C127      1.0  0.005332169060053951  0.33138301334507464  0.5921326033797146  1.0000
  C   C128      1.0  0.006273744775723664  0.8010961960640586  0.8575340135415458  1.0000
  N   N1        1.0  0.009052030066209846  0.8737784900449418  0.4845352916629085  1.0000
  N   N2        1.0  0.5088291662843136  0.8373872247847164  0.24162447561208558  1.0000
  N   N3        1.0  0.006661731825634121  0.1377460715882378  0.4820214590247728  1.0000
  N   N4        1.0  0.49359056706589977  0.15169616399360714  0.2343965710981044  1.0000
  N   N5        1.0  0.0036548910234155407  0.6562336862912717  0.7430955057195263  1.0000
  N   N6        1.0  0.000729751060146067  0.3483919490801925  0.7337046334895493  1.0000
  N   N7        1.0  0.3542368316306867  0.48757871050725726  0.985845188577722  1.0000
  N   N8        1.0  0.13090727510876304  0.5087761074823055  0.7457870695477644  1.0000
  N   N9        1.0  0.1571479542461359  0.0011898014551275525  0.501416096352865  1.0000
  N   N10       1.0  0.8272512970030536  0.0020517358229865668  0.5013163153116396  1.0000
  N   N11       1.0  0.6073999572298913  0.9955938511768924  0.24683944049561404  1.0000
  N   N12       1.0  0.4887496500519441  0.6347926230697495  0.006190413176849319  1.0000
  N   N13       1.0  0.8859723911061779  0.5219884717475649  0.7412559675776895  1.0000
  N   N14       1.0  0.6352344495608611  0.5103055456734066  0.9686906260693333  1.0000
  N   N15       1.0  0.36431192301074977  0.9862086017279218  0.2403707519991777  1.0000
  N   N16       1.0  0.4987098452043374  0.33988361372194587  0.9610524185532945  1.0000
  O   O1        1.0  0.1164601164683246  0.25840616728021504  0.23019480001837564  1.0000
  O   O2        1.0  0.12071556465268722  0.7683569849349482  0.9880976820639565  1.0000
  O   O3        1.0  0.11847405783624262  0.7435410596668205  0.2542366408973393  1.0000
  O   O4        1.0  0.11492041328852683  0.24001875616127885  0.9756531838139271  1.0000
  O   O5        1.0  0.16767477236109715  0.685648776549418  0.41004506419043585  1.0000
  O   O6        1.0  0.16065350609120438  0.18039240456916777  0.8279366660371777  1.0000
  O   O7        1.0  0.16729337981448367  0.3256662896613649  0.36874506423061304  1.0000
  O   O8        1.0  0.17126652405662116  0.8263555982358988  0.8389082586315387  1.0000
  O   O9        1.0  0.18959590080107908  0.8391499460021262  0.158108020594248  1.0000
  O   O10       1.0  0.17540143809895226  0.16624606931246264  0.12003560693943147  1.0000
  O   O11       1.0  0.17568398793870016  0.6598222980546864  0.10025758778702075  1.0000
  O   O12       1.0  0.18004601516511515  0.33832362137895977  0.07884827429124515  1.0000
  O   O13       1.0  0.2382916869348178  0.24660197706787232  0.9739096228236611  1.0000
  O   O14       1.0  0.24120499895916606  0.11982129852034248  0.9814482675782942  1.0000
  O   O15       1.0  0.2453349175894731  0.8867988509409094  0.9990050470340935  1.0000
  O   O16       1.0  0.25045528255612015  0.38328262416271963  0.2069635727784565  1.0000
  O   O17       1.0  0.24108066545443044  0.25680379563695993  0.2258364611897112  1.0000
  O   O18       1.0  0.22935052839928877  0.6141490499803176  0.2538865084252606  1.0000
  O   O19       1.0  0.250176466869812  0.7373576402758234  0.24372927806204442  1.0000
  O   O20       1.0  0.25782172265266845  0.7425445654486161  0.49465808135113654  1.0000
  O   O21       1.0  0.24738260104879192  0.7572446342176226  0.006891013786862743  1.0000
  O   O22       1.0  0.25998089876835473  0.7564009053739664  0.7598118234686955  1.0000
  O   O23       1.0  0.25800561670921845  0.23796911930960588  0.7192337379305952  1.0000
  O   O24       1.0  0.27285302185186905  0.8810354659408821  0.7478544840601057  1.0000
  O   O25       1.0  0.25350964641274876  0.1116760234180707  0.7124982775400832  1.0000
  O   O26       1.0  0.2557378190669784  0.6078857705703998  0.4994586075576271  1.0000
  O   O27       1.0  0.26343890555088284  0.3840010137690316  0.47253327377072957  1.0000
  O   O28       1.0  0.2603227252981817  0.25738004050148394  0.4593411651986254  1.0000
  O   O29       1.0  0.311437897602839  0.1563304016029505  0.5484286412013053  1.0000
  O   O30       1.0  0.33090860690265156  0.8335730297520025  0.5982616863121676  1.0000
  O   O31       1.0  0.3230256715369511  0.3340366583810716  0.6301883220238027  1.0000
  O   O32       1.0  0.3184940712838541  0.6555805298321699  0.6469421994240476  1.0000
  O   O33       1.0  0.3337157782817911  0.6768653894470392  0.3590138287631458  1.0000
  O   O34       1.0  0.33310480647918783  0.17881450221782938  0.8698051394069353  1.0000
  O   O35       1.0  0.3406768584540145  0.31728645763997404  0.3116200179494373  1.0000
  O   O36       1.0  0.3462536384186996  0.8174940884719915  0.9081681397692016  1.0000
  O   O37       1.0  0.38651261574324014  0.2593933075739178  0.4718151127917701  1.0000
  O   O38       1.0  0.38616536576039445  0.753536393758801  0.7520347783458601  1.0000
  O   O39       1.0  0.38724409499328205  0.7361757085955382  0.4997508522215728  1.0000
  O   O40       1.0  0.38991618705062864  0.22211115240415089  0.7045026450657291  1.0000
  O   O41       1.0  0.6213308103453455  0.7553204987631822  0.7358529900394937  1.0000
  O   O42       1.0  0.6179054037279236  0.2607814569445528  0.46991756848563143  1.0000
  O   O43       1.0  0.6100793240035126  0.24209410899002706  0.7340959723408882  1.0000
  O   O44       1.0  0.611386341331599  0.7313271936857952  0.48674209966798654  1.0000
  O   O45       1.0  0.6590002619900239  0.18854206951779975  0.8953184268622404  1.0000
  O   O46       1.0  0.6593851563781643  0.6843747255086509  0.31340451562211974  1.0000
  O   O47       1.0  0.6698349949201267  0.8152388892370147  0.8901771872004158  1.0000
  O   O48       1.0  0.6633929389692875  0.32297911828911896  0.31976498001391224  1.0000
  O   O49       1.0  0.6752999318754108  0.33951928925277236  0.6221498193928975  1.0000
  O   O50       1.0  0.6985325677091487  0.6653625379154182  0.6463208440898404  1.0000
  O   O51       1.0  0.6655114162261516  0.16312185001908444  0.5698987917081086  1.0000
  O   O52       1.0  0.6739229665786899  0.837917117678274  0.5691233667162335  1.0000
  O   O53       1.0  0.7401527870908085  0.7495250000514317  0.46343259049386476  1.0000
  O   O54       1.0  0.7376447682999532  0.6206538771338677  0.4670245838010129  1.0000
  O   O55       1.0  0.73715558340316  0.3886182711891418  0.4767021612381829  1.0000
  O   O56       1.0  0.7286184222218156  0.8883764280304627  0.7267885441230644  1.0000
  O   O57       1.0  0.7190884585786056  0.11756770392326152  0.7371348067502382  1.0000
  O   O58       1.0  0.75470891749695  0.7638888200670039  0.7200367554319209  1.0000
  O   O59       1.0  0.7376808337453625  0.244667182610139  0.7224898577736073  1.0000
  O   O60       1.0  0.7577229689403747  0.2444948560594391  0.9733408880420328  1.0000
  O   O61       1.0  0.7425313581053459  0.2620244166024536  0.4751715482190322  1.0000
  O   O62       1.0  0.7634277498721717  0.2587542167917508  0.23254674858130506  1.0000
  O   O63       1.0  0.7659567797970781  0.3901119043448832  0.21816243541049016  1.0000
  O   O64       1.0  0.7639902542150174  0.7443431242494558  0.21653676395527577  1.0000
  O   O65       1.0  0.7570324602221383  0.6239931151942639  0.2033451278377142  1.0000
  O   O66       1.0  0.7611851939909146  0.11795072729597965  0.9846959754021287  1.0000
  O   O67       1.0  0.7634334363217644  0.8815288637916041  0.9993159958532396  1.0000
  O   O68       1.0  0.7751637750931837  0.7570648891790137  0.968037646354876  1.0000
  O   O69       1.0  0.833921911171466  0.6700886237971814  0.08017594625633916  1.0000
  O   O70       1.0  0.8282848022178174  0.33794543225222085  0.08140555334465542  1.0000
  O   O71       1.0  0.8279848940724941  0.8420568320658631  0.1518819690347775  1.0000
  O   O72       1.0  0.8224045093437623  0.16292091527811497  0.130696375861743  1.0000
  O   O73       1.0  0.8341410315145869  0.18507631992321677  0.8093566625773392  1.0000
  O   O74       1.0  0.8432120966640078  0.6781318200877808  0.38107780903385036  1.0000
  O   O75       1.0  0.8426382656848969  0.8235515832027829  0.8050435290142283  1.0000
  O   O76       1.0  0.8469976074304761  0.31659456389258606  0.37899951836570245  1.0000
  O   O77       1.0  0.8949555833973046  0.7763226581425757  0.977337187397974  1.0000
  O   O78       1.0  0.8946992470134241  0.2582528980916278  0.21836428603558178  1.0000
  O   O79       1.0  0.8843926418979653  0.23488353776315435  0.9747396226210756  1.0000
  O   O80       1.0  0.8934537928988336  0.7421760059618581  0.23653480043455624  1.0000
  O   O81       1.0  0.9645411435274936  0.9056695153659782  0.44050773789820735  1.0000
  O   O82       1.0  0.058087092445482415  0.8639752327489263  0.4238115892043605  1.0000
  O   O83       1.0  0.4610331078869139  0.824398191528665  0.3048033273919605  1.0000
  O   O84       1.0  0.5597985953248957  0.850460676987045  0.2871345878511399  1.0000
  O   O85       1.0  0.058341460982735634  0.1290387354416295  0.4388866318866845  1.0000
  O   O86       1.0  0.9565263110753197  0.12120780264183662  0.4324464526749407  1.0000
  O   O87       1.0  0.44328009806881996  0.14981526872215914  0.28554670014761574  1.0000
  O   O88       1.0  0.5411356556316221  0.15882523602673262  0.2940279576838779  1.0000
  O   O89       1.0  0.9506614741180692  0.6466518516758106  0.7933416167698949  1.0000
  O   O90       1.0  0.05052160417000622  0.6558924537305659  0.8064513542991776  1.0000
  O   O91       1.0  0.9497620508621105  0.35085667704290535  0.7858846183690826  1.0000
  O   O92       1.0  0.04911470671977148  0.35338761213487313  0.7929719070233378  1.0000
  O   O93       1.0  0.3693136601941688  0.5380735782272678  0.03468513577412441  1.0000
  O   O94       1.0  0.3510441451557197  0.4370996396145865  0.04594983353998628  1.0000
  O   O95       1.0  0.11988429884522667  0.5602234799254052  0.6924991312291872  1.0000
  O   O96       1.0  0.11132799804462888  0.46059841406836777  0.6997347686695741  1.0000
  O   O97       1.0  0.1401145425703613  0.04857976758166534  0.5511000961224379  1.0000
  O   O98       1.0  0.16241841245577737  0.9499127200500529  0.5608033616988999  1.0000
  O   O99       1.0  0.829288395971003  0.05421085570004074  0.5516179092115966  1.0000
  O   O100      1.0  0.8393181829503426  0.9548191499755604  0.5565210861113395  1.0000
  O   O101      1.0  0.5586680959444847  0.025974990481026024  0.2370604880894701  1.0000
  O   O102      1.0  0.6337329353326101  0.9650712191186345  0.16328849532602938  1.0000
  O   O103      1.0  0.44266139882642946  0.6462734999293873  0.9385594864228861  1.0000
  O   O104      1.0  0.5358985472848533  0.6129756367419337  0.957271143658128  1.0000
  O   O105      1.0  0.8543008074454563  0.556786503175801  0.673028118277316  1.0000
  O   O106      1.0  0.9320313172478256  0.4942286770663939  0.7026007438943931  1.0000
  O   O107      1.0  0.6358270835499823  0.5613495724272535  0.01808441707710083  1.0000
  O   O108      1.0  0.612334269132344  0.46150121745074163  0.02423747198439824  1.0000
  O   O109      1.0  0.34925638281890065  0.028212976705513704  0.16096873867088077  1.0000
  O   O110      1.0  0.3931068869000335  0.9399860466946921  0.2051938240306449  1.0000
  O   O111      1.0  0.44840371272624885  0.3552261632436544  0.9187527882125899  1.0000
  O   O112      1.0  0.5466707731678515  0.3368309996529286  0.896292878423409  1.0000
