data_image0
_chemical_formula_structural       Al16H64C128N16O112
_chemical_formula_sum              "Al16 H64 C128 N16 O112"
_cell_length_a       21.62769
_cell_length_b       21.646490000000004
_cell_length_c       10.3079
_cell_angle_alpha    89.86891
_cell_angle_beta     90.04471
_cell_angle_gamma    90.32585

_space_group_name_H-M_alt    "P 1"
_space_group_IT_number       1

loop_
  _space_group_symop_operation_xyz
  'x, y, z'

loop_
  _atom_site_type_symbol
  _atom_site_label
  _atom_site_symmetry_multiplicity
  _atom_site_fract_x
  _atom_site_fract_y
  _atom_site_fract_z
  _atom_site_occupancy
  Al  Al1       1.0  0.17322742030191396  0.24863681249050157  0.09861350030596772  1.0000
  Al  Al2       1.0  0.18657019333362246  0.7500275290182157  0.1092490981696263  1.0000
  Al  Al3       1.0  0.25144924466199753  0.1773778526484386  0.8510154728447318  1.0000
  Al  Al4       1.0  0.253951164970987  0.6771682087744193  0.35820963740145734  1.0000
  Al  Al5       1.0  0.25548671908416754  0.8211142748074693  0.8756441100267459  1.0000
  Al  Al6       1.0  0.2441579779442549  0.3149492271329894  0.34951346737570427  1.0000
  Al  Al7       1.0  0.31982732275343595  0.7473409132990352  0.6248401521229536  1.0000
  Al  Al8       1.0  0.3205415874094858  0.24113656781751416  0.5868675777173143  1.0000
  Al  Al9       1.0  0.6856994216795472  0.748611392583183  0.6024461929133722  1.0000
  Al  Al10      1.0  0.6798485129579915  0.2574579298292984  0.5933694069111468  1.0000
  Al  Al11      1.0  0.7586696466614847  0.6821743179963744  0.3509126536304638  1.0000
  Al  Al12      1.0  0.7503096245996352  0.18591634841631777  0.8355644989559285  1.0000
  Al  Al13      1.0  0.7505864596406827  0.3225694943093061  0.34674313848726285  1.0000
  Al  Al14      1.0  0.7456634370094726  0.8228931091369001  0.8519588908363617  1.0000
  Al  Al15      1.0  0.823332258883854  0.2494750094656018  0.0900301925884899  1.0000
  Al  Al16      1.0  0.8204413676675101  0.7571255462935849  0.10754189289596479  1.0000
  H   H1        1.0  0.006297762043541941  0.21805772163468434  0.9572900040046659  1.0000
  H   H2        1.0  0.006466409382966502  0.7347281570063408  0.23701871709307684  1.0000
  H   H3        1.0  0.09690203763848844  0.13562786979882838  0.6300520494474187  1.0000
  H   H4        1.0  0.09275304792443394  0.3262774174085007  0.586918363185187  1.0000
  H   H5        1.0  0.10035208953597105  0.6906531221807181  0.5982510245556504  1.0000
  H   H6        1.0  0.10798473959725895  0.85018457158832  0.6664136188614493  1.0000
  H   H7        1.0  0.16973802059399679  0.9074857790231193  0.34323484918503394  1.0000
  H   H8        1.0  0.16999497244821105  0.10596844447934657  0.3280090168631299  1.0000
  H   H9        1.0  0.17327959076426525  0.5963099430892347  0.88272918677883  1.0000
  H   H10       1.0  0.15987461745385737  0.39897161778407547  0.87915014765137  1.0000
  H   H11       1.0  0.2314759861676664  8.70692898458092e-05  0.9985556758248743  1.0000
  H   H12       1.0  0.22176789285099582  0.4890050155589164  0.22761312116167465  1.0000
  H   H13       1.0  0.2791547764831212  0.0009357945345672506  0.7286118567983179  1.0000
  H   H14       1.0  0.2739921153277055  0.4912533083367936  0.4891461268854526  1.0000
  H   H15       1.0  0.33939555440185226  0.08568638153460854  0.3698336305411546  1.0000
  H   H16       1.0  0.3442050567220421  0.8911720211123841  0.4180951589349557  1.0000
  H   H17       1.0  0.36394036338709357  0.3927592422494634  0.8056827328467433  1.0000
  H   H18       1.0  0.34424799305228937  0.5915041795356181  0.833551674771247  1.0000
  H   H19       1.0  0.39576598085978476  0.6633793692574094  0.1473283202145464  1.0000
  H   H20       1.0  0.40905285227716504  0.793950255877557  0.12573470288076988  1.0000
  H   H21       1.0  0.3988114113693047  0.16068006729559942  0.06785826276064784  1.0000
  H   H22       1.0  0.405474902291804  0.3361389133502953  0.09527855331427033  1.0000
  H   H23       1.0  0.4973738024951489  0.7560433148936219  0.7512711094199973  1.0000
  H   H24       1.0  0.4988181599606082  0.27141106759559663  0.45607393830826426  1.0000
  H   H25       1.0  0.5015280388245815  0.7196856795766807  0.4798463394286918  1.0000
  H   H26       1.0  0.4955235884522147  0.23268232856563034  0.7390145374828402  1.0000
  H   H27       1.0  0.5977003809830945  0.6306668877722703  0.17254060950007746  1.0000
  H   H28       1.0  0.600167060041852  0.8275866977507429  0.08689560900871393  1.0000
  H   H29       1.0  0.6001483942207252  0.16315784519925802  0.06257216873006871  1.0000
  H   H30       1.0  0.5979929325083333  0.3419520532967777  0.12516093157708258  1.0000
  H   H31       1.0  0.6447414352004791  0.41204251379890006  0.8103374539545988  1.0000
  H   H32       1.0  0.6782698935227108  0.605055818030472  0.8290729357045404  1.0000
  H   H33       1.0  0.6292910142290407  0.10328478207637576  0.4034519988827122  1.0000
  H   H34       1.0  0.6443858564102183  0.9072042376316812  0.38853425154872223  1.0000
  H   H35       1.0  0.7210464338779796  0.4963189696149397  0.4932537252601186  1.0000
  H   H36       1.0  0.7169819249108524  0.008496725953999418  0.7259890870081279  1.0000
  H   H37       1.0  0.7608133708032226  0.5050331732191217  0.19518325054242627  1.0000
  H   H38       1.0  0.766004729019736  0.9977070694634771  0.9888085379449566  1.0000
  H   H39       1.0  0.8539880033980393  0.60707619984791  0.8933406778192223  1.0000
  H   H40       1.0  0.868579402456786  0.4081243815064229  0.893839878915771  1.0000
  H   H41       1.0  0.8139484923256093  0.9131753040408824  0.3518417893309703  1.0000
  H   H42       1.0  0.8247234823105497  0.11223542497049693  0.3135044693469356  1.0000
  H   H43       1.0  0.9019711526235406  0.16242876983336016  0.6289664886074585  1.0000
  H   H44       1.0  0.899361299343669  0.3410540815051359  0.5764632439269589  1.0000
  H   H45       1.0  0.902268894754522  0.6726609937360558  0.572182353688653  1.0000
  H   H46       1.0  0.9058184096792129  0.8556591131813301  0.6570369590730535  1.0000
  H   H47       1.0  0.9979069006035912  0.2604669014709665  0.2500141351750225  1.0000
  H   H48       1.0  0.9991646651832726  0.7809532396662288  0.9887042351160036  1.0000
  H   H49       1.0  0.2810475032023015  0.7346413252264717  0.0061163722560299465  1.0000
  H   H50       1.0  0.2220166813383737  0.7546529400623423  0.5294009642641772  1.0000
  H   H51       1.0  0.23639518099399748  0.7216444544854167  0.7816521076699722  1.0000
  H   H52       1.0  0.2764762393525873  0.7753159962708689  0.275567385299683  1.0000
  H   H53       1.0  0.7855514424715607  0.7445364981483863  0.6840855190940565  1.0000
  H   H54       1.0  0.7162732755976426  0.7600608567972764  0.22057064001863533  1.0000
  H   H55       1.0  0.7508201522993938  0.7856898504030713  0.44292535667243466  1.0000
  H   H56       1.0  0.7405241184100451  0.7234980450743104  0.946080293350669  1.0000
  H   H57       1.0  0.2608405610779589  0.21565701640838633  0.22904698092322967  1.0000
  H   H58       1.0  0.24249076809101994  0.2728779244769157  0.7389238805380701  1.0000
  H   H59       1.0  0.2722255533156782  0.266236511055146  0.0015548444254236404  1.0000
  H   H60       1.0  0.21467532371594789  0.24942835138622205  0.5142817951036742  1.0000
  H   H61       1.0  0.7832364543366643  0.23740333955956483  0.5125467188925256  1.0000
  H   H62       1.0  0.7210891255804639  0.2645374112956741  0.010972617460356604  1.0000
  H   H63       1.0  0.751813711904455  0.2888464781479892  0.740874406692132  1.0000
  H   H64       1.0  0.7436142090527473  0.2266091854933577  0.24646668453290904  1.0000
  C   C1        1.0  0.002470128485809471  0.1983145455959668  0.8619496270545837  1.0000
  C   C2        1.0  0.003148279449213698  0.6820029946743346  0.6012911579724596  1.0000
  C   C3        1.0  0.0042656594426075944  0.7210273232337953  0.3415922877224524  1.0000
  C   C4        1.0  0.005844646920647173  0.8572810911257159  0.640689274223332  1.0000
  C   C5        1.0  0.05442341593170265  0.15539412159848345  0.6758010607027962  1.0000
  C   C6        1.0  0.057638259866759786  0.18101826902814386  0.801335689271139  1.0000
  C   C7        1.0  0.04955758960793831  0.2977405518840398  0.4044306142527044  1.0000
  C   C8        1.0  0.05158175085698743  0.3206395346905781  0.531200863760924  1.0000
  C   C9        1.0  0.05639461436460046  0.8210324014252978  0.8373488229748879  1.0000
  C   C10       1.0  0.05815591385931511  0.7154398216697372  0.41222992100673184  1.0000
  C   C11       1.0  0.05828157872734029  0.696709783351133  0.5458084228596722  1.0000
  C   C12       1.0  0.05999430127623114  0.8453312294217445  0.7074540307585896  1.0000
  C   C13       1.0  0.12109365807184748  0.7134065253167738  0.3490535711986547  1.0000
  C   C14       1.0  0.11906401585418913  0.1930635337662085  0.8705880722544687  1.0000
  C   C15       1.0  0.10742719937334978  0.29365024060921596  0.3319675107184223  1.0000
  C   C16       1.0  0.11631063992573329  0.8006607870215765  0.8961805428970983  1.0000
  C   C17       1.0  0.18107987967246905  0.9470607122224697  0.29334308874298953  1.0000
  C   C18       1.0  0.16975328603076584  0.005562340269514878  0.3534681486101493  1.0000
  C   C19       1.0  0.1841708512629003  0.060320331437203126  0.2887956662333433  1.0000
  C   C20       1.0  0.16300263339559484  0.4980575966214334  0.8722107498806921  1.0000
  C   C21       1.0  0.18100684257993027  0.5527295836446051  0.9379720313998471  1.0000
  C   C22       1.0  0.16904956129966117  0.4397743596434546  0.9288574403030158  1.0000
  C   C23       1.0  0.2060689112944107  0.9473525514694061  0.16958706235193755  1.0000
  C   C24       1.0  0.20737089370289133  0.05979550123946931  0.16269290186118662  1.0000
  C   C25       1.0  0.21934265801058825  0.8854974002245198  0.10710498788977071  1.0000
  C   C26       1.0  0.1926302111750968  0.43914812823973987  0.05482795677261728  1.0000
  C   C27       1.0  0.20105327644656873  0.37921409479501555  0.11585771761222174  1.0000
  C   C28       1.0  0.204526343496902  0.6124423681347096  0.13024804366446466  1.0000
  C   C29       1.0  0.21635307161559225  0.003166934527339336  0.09925664190642672  1.0000
  C   C30       1.0  0.21012555119445872  0.12065261754228723  0.09319998906874868  1.0000
  C   C31       1.0  0.19628205776997915  0.5520829172450319  0.06653950728364753  1.0000
  C   C32       1.0  0.20953509883976382  0.4936604186720942  0.12377867025446135  1.0000
  C   C33       1.0  0.3016237121187357  0.9949649290491922  0.6398342547079394  1.0000
  C   C34       1.0  0.29605879385986444  0.4938943461689279  0.5888715077269503  1.0000
  C   C35       1.0  0.29816281783548354  0.3774506392774944  0.5702295351114202  1.0000
  C   C36       1.0  0.31662424318526167  0.9376670546549213  0.5816511110686275  1.0000
  C   C37       1.0  0.307081695749623  0.8809115641524795  0.6531698012553028  1.0000
  C   C38       1.0  0.2966549124445633  0.111303730541617  0.6251559292917072  1.0000
  C   C39       1.0  0.2982170439713945  0.6128740684043744  0.5969490009544146  1.0000
  C   C40       1.0  0.3080168535548293  0.049125606669978956  0.5624750610920543  1.0000
  C   C41       1.0  0.31404560791110475  0.4365033228335228  0.6389315114629426  1.0000
  C   C42       1.0  0.30664189295488364  0.5498609438838176  0.6515678573015351  1.0000
  C   C43       1.0  0.33017403664153655  0.046842515781197226  0.4344905772156069  1.0000
  C   C44       1.0  0.34272837967956765  0.9358705858204869  0.4588407213623043  1.0000
  C   C45       1.0  0.343245864228159  0.9875339523312133  0.384370644512636  1.0000
  C   C46       1.0  0.3427745255571982  0.43544347257101584  0.7659623259573034  1.0000
  C   C47       1.0  0.3475903230943754  0.4909604284053188  0.8358163269284943  1.0000
  C   C48       1.0  0.332032659349078  0.5498705035031166  0.7804919048330661  1.0000
  C   C49       1.0  0.3867659457120999  0.6946338205778654  0.3999505635668158  1.0000
  C   C50       1.0  0.38590094180805234  0.20324004827892114  0.8169558513629755  1.0000
  C   C51       1.0  0.37746114679609505  0.2913713648756992  0.35464486213260277  1.0000
  C   C52       1.0  0.388342355640976  0.786687953695974  0.8645047155487386  1.0000
  C   C53       1.0  0.4414393336626946  0.6663572598060847  0.19207161932820452  1.0000
  C   C54       1.0  0.44925704863233873  0.8001978395252645  0.05892018824798999  1.0000
  C   C55       1.0  0.44987686577649133  0.7846005712432291  0.9289916814218797  1.0000
  C   C56       1.0  0.44506364450276703  0.6879674975751189  0.32613607705824604  1.0000
  C   C57       1.0  0.4412003345864037  0.17531279257041774  0.020331259541341497  1.0000
  C   C58       1.0  0.44451813555569447  0.19397205603729623  0.892479342741052  1.0000
  C   C59       1.0  0.44182778610126794  0.29770754785796066  0.2851112561610136  1.0000
  C   C60       1.0  0.4426433923091624  0.31789455070592326  0.15600803873283636  1.0000
  C   C61       1.0  0.49721311149729974  0.6486007490636233  0.1354945980034721  1.0000
  C   C62       1.0  0.5019171780630869  0.7752352702422285  0.850249774401614  1.0000
  C   C63       1.0  0.5066230451452189  0.8160359817666921  0.1136323160470518  1.0000
  C   C64       1.0  0.4979339849251573  0.2889616863302922  0.36180370000129447  1.0000
  C   C65       1.0  0.5028242046835093  0.698775613392257  0.38390386136474786  1.0000
  C   C66       1.0  0.497410491056971  0.16276114754612073  0.087951885428089  1.0000
  C   C67       1.0  0.4995761861876252  0.21128855219498563  0.8336130870708657  1.0000
  C   C68       1.0  0.5020441651882848  0.3319572455492538  0.10997851171581453  1.0000
  C   C69       1.0  0.554699652056047  0.6506935223785929  0.20189430724911728  1.0000
  C   C70       1.0  0.5565447628580628  0.683693609639796  0.3150218342362411  1.0000
  C   C71       1.0  0.5573909121837635  0.7895356913067989  0.91232036035977  1.0000
  C   C72       1.0  0.5578393422002608  0.8106931885957925  0.03980585131212009  1.0000
  C   C73       1.0  0.5553658380769563  0.30508440556963484  0.31007432810062013  1.0000
  C   C74       1.0  0.5538162219422013  0.19987312144472913  0.8999463305965375  1.0000
  C   C75       1.0  0.5547429468902146  0.17632912953570962  0.029434513669413895  1.0000
  C   C76       1.0  0.55709500226735  0.3297029672450531  0.18203606298704397  1.0000
  C   C77       1.0  0.6150651555745078  0.20758589404112657  0.830877857577401  1.0000
  C   C78       1.0  0.6181983926784127  0.7008272856988054  0.3816422204988772  1.0000
  C   C79       1.0  0.6193405813639086  0.7870145914116954  0.8471177102560212  1.0000
  C   C80       1.0  0.6165160104566889  0.3011767141502855  0.37553767415840184  1.0000
  C   C81       1.0  0.6659584635043129  0.4513535389301121  0.7686195441835416  1.0000
  C   C82       1.0  0.6713511779736122  0.5065328577293591  0.8385898863582644  1.0000
  C   C83       1.0  0.6884676375323897  0.5623578503987438  0.7830843133555616  1.0000
  C   C84       1.0  0.6402996575722147  0.0018018612058863528  0.3779537222880613  1.0000
  C   C85       1.0  0.6511751679917189  0.05826021651966805  0.43653539152050275  1.0000
  C   C86       1.0  0.6521213348160513  0.9470353157182559  0.4481805393701741  1.0000
  C   C87       1.0  0.6950283712016826  0.45084897746153785  0.6494938420074519  1.0000
  C   C88       1.0  0.7098755058022198  0.5617917789486252  0.6559434208332898  1.0000
  C   C89       1.0  0.7013631857170468  0.38915816009701704  0.5735706870707867  1.0000
  C   C90       1.0  0.6753348579251199  0.9482663455926584  0.5753412672221775  1.0000
  C   C91       1.0  0.6934067539104731  0.8868042700264723  0.6248900373078373  1.0000
  C   C92       1.0  0.6998499393211702  0.12078954709616134  0.6139690875718669  1.0000
  C   C93       1.0  0.7116497902900031  0.5061579380915006  0.5912078032014897  1.0000
  C   C94       1.0  0.6875735729568373  0.06118973720249884  0.5523968169792586  1.0000
  C   C95       1.0  0.721500631745946  0.6198275646993288  0.5837832266298681  1.0000
  C   C96       1.0  0.7000782178288327  0.005738828107106676  0.6246363786951853  1.0000
  C   C97       1.0  0.785649074642203  0.5015195115246338  0.09893038924660194  1.0000
  C   C98       1.0  0.7833730120965116  0.005826582437025829  0.08439009719729783  1.0000
  C   C99       1.0  0.8065230889668633  0.44639777107500267  0.04401536210918231  1.0000
  C   C100      1.0  0.7850868797998145  0.8885006564567218  0.09238258644225114  1.0000
  C   C101      1.0  0.7987352479541054  0.3866320097679649  0.11372141592910928  1.0000
  C   C102      1.0  0.7958919194478448  0.6159397782509574  0.12835588359387382  1.0000
  C   C103      1.0  0.7853479292035047  0.11885499349960654  0.06543162078374834  1.0000
  C   C104      1.0  0.8083939726428564  0.5589449319171372  0.05451670721238658  1.0000
  C   C105      1.0  0.7923438567327296  0.9509794511681371  0.1598116955556287  1.0000
  C   C106      1.0  0.7907260637449103  0.06253321728795944  0.14641263249118655  1.0000
  C   C107      1.0  0.8379815184123437  0.5634201655907977  0.9304243081449877  1.0000
  C   C108      1.0  0.8426134802102324  0.4483736342341334  0.9317900219170252  1.0000
  C   C109      1.0  0.8579514822967539  0.5071653961852711  0.8765014103237191  1.0000
  C   C110      1.0  0.8097226144432963  0.9537682781908521  0.28489476914642464  1.0000
  C   C111      1.0  0.8149366710640815  0.012307305715861583  0.3451769710809785  1.0000
  C   C112      1.0  0.812696091925549  0.06579022135013923  0.27215820473683533  1.0000
  C   C113      1.0  0.8844794960384155  0.20860768072029906  0.8650053194569273  1.0000
  C   C114      1.0  0.8913296002250245  0.7142628286274726  0.3288670961765256  1.0000
  C   C115      1.0  0.8813905462386317  0.8022823630564163  0.8817284591780554  1.0000
  C   C116      1.0  0.8831737954741966  0.2952871892038571  0.32215731034345035  1.0000
  C   C117      1.0  0.9436498181795719  0.16918932465184552  0.676273656884811  1.0000
  C   C118      1.0  0.9405224819058587  0.321455909156489  0.5340911834914794  1.0000
  C   C119      1.0  0.9398474227485356  0.2975798092440489  0.4071345851058833  1.0000
  C   C120      1.0  0.94401207867221  0.19286029196545235  0.7971062257583088  1.0000
  C   C121      1.0  0.9476812258616475  0.6862069293241297  0.5292240867907021  1.0000
  C   C122      1.0  0.9489752805529307  0.7071783326937302  0.40463883379786303  1.0000
  C   C123      1.0  0.9448041960636056  0.8170091298648299  0.8266429681133242  1.0000
  C   C124      1.0  0.94947498008224  0.8470881396449035  0.7060038785913068  1.0000
  C   C125      1.0  0.9979155128573848  0.15004858855150938  0.6234948994161302  1.0000
  C   C126      1.0  0.9948864575867176  0.2822926556029808  0.3458436306342574  1.0000
  C   C127      1.0  0.9959952166245228  0.3275542252292145  0.5980111757795791  1.0000
  C   C128      1.0  0.9986628797113881  0.8075205678907956  0.8998928869655295  1.0000
  N   N1        1.0  0.012344375848771285  0.8800349266843849  0.507909964639147  1.0000
  N   N2        1.0  0.5116495313316937  0.841397676444344  0.24465533456189711  1.0000
  N   N3        1.0  0.9942352681114892  0.13631916525013135  0.48066089665647554  1.0000
  N   N4        1.0  0.4908410991389738  0.15334897758550753  0.22936380292471922  1.0000
  N   N5        1.0  0.0030956060059093016  0.6612354559967608  0.7420658361549503  1.0000
  N   N6        1.0  0.9931722403825177  0.34332883770841643  0.7347530081794582  1.0000
  N   N7        1.0  0.36297518978485827  0.4896292497424366  0.9787883009665953  1.0000
  N   N8        1.0  0.14179262489943234  0.5048764640191605  0.7362753770123592  1.0000
  N   N9        1.0  0.15754010654839054  0.006336283664068746  0.4963281092059397  1.0000
  N   N10       1.0  0.827494820813176  0.018904320919968187  0.4863241170968124  1.0000
  N   N11       1.0  0.6089721651019324  0.9959158484699  0.24988216804681154  1.0000
  N   N12       1.0  0.5003361134188493  0.621715833650348  0.9987364299479438  1.0000
  N   N13       1.0  0.8953812566669157  0.5106255143515324  0.7579560239653718  1.0000
  N   N14       1.0  0.6458110864856941  0.5104692485909967  0.9718337080100821  1.0000
  N   N15       1.0  0.3543940239154422  0.9817783675260674  0.24300172814044857  1.0000
  N   N16       1.0  0.5095450202242718  0.3498090265768536  0.9674557065352766  1.0000
  O   O1        1.0  0.10541169463552919  0.26702494891526546  0.2213606558037788  1.0000
  O   O2        1.0  0.11547504730272287  0.7658028618993709  0.9948799319464453  1.0000
  O   O3        1.0  0.12801609024900681  0.7409946452626621  0.24002647039639421  1.0000
  O   O4        1.0  0.11729992840949613  0.22808556177584624  0.971287824136135  1.0000
  O   O5        1.0  0.16599714942427712  0.6844132631162776  0.40708255398784066  1.0000
  O   O6        1.0  0.165332073867142  0.17169133677975662  0.8175669300832803  1.0000
  O   O7        1.0  0.15791544052012482  0.3185529771748115  0.3780331072629519  1.0000
  O   O8        1.0  0.16761855191741043  0.8253853278141353  0.8522599181101118  1.0000
  O   O9        1.0  0.18906618840734626  0.8389182419088499  0.15899801532765315  1.0000
  O   O10       1.0  0.17542920338771875  0.16365474945744243  0.13737190825540876  1.0000
  O   O11       1.0  0.1799482333290891  0.6594878207152871  0.07452339824397736  1.0000
  O   O12       1.0  0.17204497899095184  0.3349131645560604  0.06498744948489603  1.0000
  O   O13       1.0  0.23735255461115723  0.24243980564257797  0.9709466217340053  1.0000
  O   O14       1.0  0.246935554283115  0.12240478955218394  0.9960163238505071  1.0000
  O   O15       1.0  0.2540876010267534  0.8855142004469293  0.006591496039330957  1.0000
  O   O16       1.0  0.23704556355357578  0.37782835079213023  0.2129819703800341  1.0000
  O   O17       1.0  0.2354190238217329  0.2526633251744294  0.2248242103547318  1.0000
  O   O18       1.0  0.23587670644387618  0.6141337564262379  0.23857108436410576  1.0000
  O   O19       1.0  0.260111290527221  0.739586510462657  0.23554247030097125  1.0000
  O   O20       1.0  0.26037784902680444  0.7398273411793197  0.4937326554374291  1.0000
  O   O21       1.0  0.24429577511528813  0.7575739252230937  0.9895901019354888  1.0000
  O   O22       1.0  0.25604848244463674  0.7594390358859758  0.7408783153560999  1.0000
  O   O23       1.0  0.25312218785494334  0.23165527651747628  0.7094083695334988  1.0000
  O   O24       1.0  0.2808341607504192  0.8847370607708763  0.7619262797074717  1.0000
  O   O25       1.0  0.2630038122616242  0.1106231986924804  0.7290001678660271  1.0000
  O   O26       1.0  0.26191353091912756  0.6175044537617853  0.5033512623985611  1.0000
  O   O27       1.0  0.2615041127731043  0.3784487655767803  0.47394038115760584  1.0000
  O   O28       1.0  0.25307030308364853  0.25521141879795084  0.47306028662668104  1.0000
  O   O29       1.0  0.3176529182013092  0.1560528196614963  0.566502681740853  1.0000
  O   O30       1.0  0.32542847973809425  0.8333013428267824  0.5964745450283377  1.0000
  O   O31       1.0  0.31945951971882725  0.3286478937195636  0.624803291937433  1.0000
  O   O32       1.0  0.32332861060987234  0.6600932758307024  0.6539701722350837  1.0000
  O   O33       1.0  0.3423824764680269  0.6636818572814203  0.3593516618949948  1.0000
  O   O34       1.0  0.3394215152577891  0.1839176320325996  0.8784457528530274  1.0000
  O   O35       1.0  0.3303288815740929  0.3193008724713423  0.31319974974877207  1.0000
  O   O36       1.0  0.34322385235042296  0.8110106480937769  0.9235279212000778  1.0000
  O   O37       1.0  0.3836261199895118  0.2574359632896546  0.4582237452063427  1.0000
  O   O38       1.0  0.3864112661837436  0.7624385980272627  0.7560728550830795  1.0000
  O   O39       1.0  0.3855438513138863  0.7343525161906638  0.4901809497940341  1.0000
  O   O40       1.0  0.3837362165960155  0.23247896311687788  0.7055795348611259  1.0000
  O   O41       1.0  0.6232430132438145  0.7506463027263204  0.7494133356969728  1.0000
  O   O42       1.0  0.6145116360353929  0.27172669405978084  0.48179490203451053  1.0000
  O   O43       1.0  0.6160162124592373  0.24213344494334077  0.726554675243915  1.0000
  O   O44       1.0  0.6190829879928877  0.7335020361323351  0.48427322103107884  1.0000
  O   O45       1.0  0.6639772945893626  0.18103394325998706  0.8810444934305536  1.0000
  O   O46       1.0  0.6656677404140088  0.6784099993777072  0.3279396436559606  1.0000
  O   O47       1.0  0.6568866889517749  0.8245405392667291  0.8852317697601346  1.0000
  O   O48       1.0  0.6646234382232514  0.3200500353290385  0.3176633101218964  1.0000
  O   O49       1.0  0.6844264134092518  0.34042942746649346  0.6363286963287856  1.0000
  O   O50       1.0  0.6889287404279121  0.6653609042374492  0.6311811488652437  1.0000
  O   O51       1.0  0.6723340156399323  0.16808164646453608  0.5606583123335066  1.0000
  O   O52       1.0  0.6724650666604085  0.8375551078060866  0.5761945763939176  1.0000
  O   O53       1.0  0.7421935284311322  0.7467629621352861  0.4756168021857892  1.0000
  O   O54       1.0  0.7502544731966577  0.623202351266606  0.4781905977455422  1.0000
  O   O55       1.0  0.7278532833675131  0.39288705474231006  0.4664362071520693  1.0000
  O   O56       1.0  0.7292210963589919  0.8842908193400161  0.7226067926982482  1.0000
  O   O57       1.0  0.7342879067045617  0.12341881198236979  0.7142003964088841  1.0000
  O   O58       1.0  0.7466911207113011  0.7584418162285874  0.7249732146684098  1.0000
  O   O59       1.0  0.7369078572747323  0.2477581504245113  0.7226125562556158  1.0000
  O   O60       1.0  0.757526606389448  0.24596856503065903  0.9652486206662517  1.0000
  O   O61       1.0  0.7494064843851523  0.260495762636824  0.47747235042478736  1.0000
  O   O62       1.0  0.7559239018309559  0.2657877419231278  0.21787173422740153  1.0000
  O   O63       1.0  0.7600105917172503  0.3832673242117029  0.2054590175190923  1.0000
  O   O64       1.0  0.758855726292359  0.7418331572565199  0.22595222613451962  1.0000
  O   O65       1.0  0.7676763927080211  0.6149568710319204  0.23717321263892593  1.0000
  O   O66       1.0  0.7590530604146265  0.11885385342776394  0.9522647883130357  1.0000
  O   O67       1.0  0.7542516404538513  0.8839254792266039  0.9885170053582887  1.0000
  O   O68       1.0  0.7500693526773038  0.7642018804469356  0.9804975347873793  1.0000
  O   O69       1.0  0.8190998898919469  0.6655922066278167  0.06832754496993616  1.0000
  O   O70       1.0  0.8327692153856294  0.34254402365801967  0.06643001812618307  1.0000
  O   O71       1.0  0.8183087892257991  0.8463660381421895  0.1443833170236082  1.0000
  O   O72       1.0  0.8109383467358099  0.16647953279235111  0.11571575908907256  1.0000
  O   O73       1.0  0.8361031560768254  0.18789672439580762  0.8100431991760485  1.0000
  O   O74       1.0  0.8455415279341219  0.6867930568894429  0.3812598999995477  1.0000
  O   O75       1.0  0.8364470029700849  0.8314173819086565  0.8340652464409793  1.0000
  O   O76       1.0  0.8378145868281234  0.3236667129023375  0.3743574778601616  1.0000
  O   O77       1.0  0.8827151702173821  0.761122415215203  0.9707286998934027  1.0000
  O   O78       1.0  0.884103046592698  0.2641379123098425  0.21495536158772235  1.0000
  O   O79       1.0  0.886229496652818  0.2346579909125835  0.975897240054786  1.0000
  O   O80       1.0  0.8868916329640838  0.7501010117145968  0.2293205418047581  1.0000
  O   O81       1.0  0.9754980349848259  0.9208465633169607  0.4724325905062503  1.0000
  O   O82       1.0  0.059016294939870984  0.864500362648342  0.4450093148548295  1.0000
  O   O83       1.0  0.4637445398634489  0.8381731517666937  0.31527944322855994  1.0000
  O   O84       1.0  0.561556779551226  0.8590693338806065  0.2878312400217515  1.0000
  O   O85       1.0  0.04055044711217151  0.14811368213741433  0.4142698089786345  1.0000
  O   O86       1.0  0.944468150711777  0.11734707546352109  0.44376789058215144  1.0000
  O   O87       1.0  0.4407404849545383  0.1264616048634236  0.2641170420025296  1.0000
  O   O88       1.0  0.532765125199724  0.16892959526298465  0.30561259060652174  1.0000
  O   O89       1.0  0.9529214925236444  0.6488481898941327  0.7919870575817003  1.0000
  O   O90       1.0  0.0558912043297753  0.6603619660550352  0.79452671708808  1.0000
  O   O91       1.0  0.9441275668421628  0.33221851103859157  0.791229435491904  1.0000
  O   O92       1.0  0.04061959798165659  0.3630321969753621  0.7840086245869907  1.0000
  O   O93       1.0  0.3723230569718062  0.5395139776458369  0.03205552363919234  1.0000
  O   O94       1.0  0.36222446249052237  0.43614964486849406  0.02816156882066655  1.0000
  O   O95       1.0  0.14503976201411872  0.5559513343669517  0.683113719875228  1.0000
  O   O96       1.0  0.12476562298390152  0.4550068039671771  0.6869742254942126  1.0000
  O   O97       1.0  0.14494214095689073  0.054654491615092594  0.5550851890714692  1.0000
  O   O98       1.0  0.16121337823655532  0.955302407736659  0.5530554962223362  1.0000
  O   O99       1.0  0.8257150770640126  0.07293509345139852  0.5260828025055335  1.0000
  O   O100      1.0  0.835704332168004  0.9709540347582903  0.5472913994611464  1.0000
  O   O101      1.0  0.5711370196635096  0.035677172281909725  0.21210127048640978  1.0000
  O   O102      1.0  0.6272593570200404  0.9508785304687063  0.18425468138555617  1.0000
  O   O103      1.0  0.4526648945201835  0.6167323058593139  0.9334959194520349  1.0000
  O   O104      1.0  0.5524969368166502  0.6065423477620658  0.9549266331013149  1.0000
  O   O105      1.0  0.8820301619857075  0.5493628257336827  0.6721249530246681  1.0000
  O   O106      1.0  0.9406566574393447  0.47654326438213424  0.7588563409089082  1.0000
  O   O107      1.0  0.6575642676279204  0.5579475996630527  0.04211000047510773  1.0000
  O   O108      1.0  0.6115394596707318  0.4674573270861177  0.009601397780162148  1.0000
  O   O109      1.0  0.34805334189338794  0.029070473700748355  0.17356634808763735  1.0000
  O   O110      1.0  0.37147436318804  0.9294929136214126  0.20569159709210777  1.0000
  O   O111      1.0  0.46182085551017416  0.3635830024198057  0.9110815476838656  1.0000
  O   O112      1.0  0.5622201635030026  0.35046281628712617  0.91728731377211  1.0000
