data_image0
_chemical_formula_structural       Al16H64C128N16O112
_chemical_formula_sum              "Al16 H64 C128 N16 O112"
_cell_length_a       21.62769
_cell_length_b       21.646490000000004
_cell_length_c       10.3079
_cell_angle_alpha    89.86891
_cell_angle_beta     90.04471
_cell_angle_gamma    90.32585

_space_group_name_H-M_alt    "P 1"
_space_group_IT_number       1

loop_
  _space_group_symop_operation_xyz
  'x, y, z'

loop_
  _atom_site_type_symbol
  _atom_site_label
  _atom_site_symmetry_multiplicity
  _atom_site_fract_x
  _atom_site_fract_y
  _atom_site_fract_z
  _atom_site_occupancy
  Al  Al1       1.0  0.17672793982209445  0.2471038663779913  0.0858377202290721  1.0000
  Al  Al2       1.0  0.18632800069844943  0.7499775170806979  0.12838343341749311  1.0000
  Al  Al3       1.0  0.24774045338520184  0.1753602667124457  0.8458846446452314  1.0000
  Al  Al4       1.0  0.2536120512896711  0.6761884642136163  0.3725833858290081  1.0000
  Al  Al5       1.0  0.25532565016086284  0.8198384254553418  0.8875897506071427  1.0000
  Al  Al6       1.0  0.25125091921530307  0.32200235944512345  0.3386054669687594  1.0000
  Al  Al7       1.0  0.32018805617000246  0.7474254381691352  0.6269878092073431  1.0000
  Al  Al8       1.0  0.3101167421170241  0.2411993393698656  0.5808777641006342  1.0000
  Al  Al9       1.0  0.6780805727956762  0.7493308109474824  0.6156495889774762  1.0000
  Al  Al10      1.0  0.6746686704164857  0.24886475405786715  0.5991274073595111  1.0000
  Al  Al11      1.0  0.7511751918686606  0.6866447022403687  0.3684050764344124  1.0000
  Al  Al12      1.0  0.7464431020983378  0.1890814359555277  0.8465406084873545  1.0000
  Al  Al13      1.0  0.7520675471415731  0.3209393426883175  0.35342833340093877  1.0000
  Al  Al14      1.0  0.7562753856283588  0.8239772515269773  0.8547424940482267  1.0000
  Al  Al15      1.0  0.8238217651559653  0.2527118827108906  0.09508269325755848  1.0000
  Al  Al16      1.0  0.8240075056253234  0.757168013780406  0.1186374073094561  1.0000
  H   H1        1.0  0.9990038834613273  0.20910116186040098  0.964913917587991  1.0000
  H   H2        1.0  0.011171297912530118  0.7349933493095689  0.25383621481458124  1.0000
  H   H3        1.0  0.09305419349699448  0.1532161685954226  0.6216030750113952  1.0000
  H   H4        1.0  0.10551896027134408  0.33401735405718186  0.5752209028790389  1.0000
  H   H5        1.0  0.09741883289520875  0.6534458457798885  0.5887819654644586  1.0000
  H   H6        1.0  0.10616909564944717  0.841344412447941  0.6380029112755933  1.0000
  H   H7        1.0  0.15991390929207597  0.9023740011330429  0.3387863908650218  1.0000
  H   H8        1.0  0.16546870625460808  0.10166848602893241  0.32933799753700843  1.0000
  H   H9        1.0  0.17008871374397147  0.6100627485350402  0.8984875093249562  1.0000
  H   H10       1.0  0.15888529838957408  0.41233886400315506  0.856978807664107  1.0000
  H   H11       1.0  0.2357286886555654  0.004016317046715123  0.010905316456273795  1.0000
  H   H12       1.0  0.2262659130825697  0.4889419942103233  0.21727643568284824  1.0000
  H   H13       1.0  0.27782788468421576  0.9968814238806886  0.7194063177169572  1.0000
  H   H14       1.0  0.2692329100171021  0.501408535962296  0.49834725865472435  1.0000
  H   H15       1.0  0.33672172505662534  0.08755595316207927  0.37124242013783987  1.0000
  H   H16       1.0  0.33903781237264424  0.8901826712707258  0.40459457150112976  1.0000
  H   H17       1.0  0.34137930733478355  0.38796722583067667  0.8150107307873773  1.0000
  H   H18       1.0  0.33829195686483193  0.586802490364151  0.8541795717366351  1.0000
  H   H19       1.0  0.3963980965892771  0.6798230690583774  0.14823589471954832  1.0000
  H   H20       1.0  0.4040073647883217  0.8206517689362102  0.09697860483064724  1.0000
  H   H21       1.0  0.4035847973537547  0.1595953641816762  0.06779561645244947  1.0000
  H   H22       1.0  0.3989481890236274  0.3182776697656125  0.10136039758338447  1.0000
  H   H23       1.0  0.5045566194536434  0.7720259280794318  0.7520081297753622  1.0000
  H   H24       1.0  0.5015805357307146  0.27773031928505  0.45238993084093493  1.0000
  H   H25       1.0  0.5035332539773303  0.7345252658470126  0.4842815651409792  1.0000
  H   H26       1.0  0.49260999385282606  0.23446513692002482  0.7365360923690428  1.0000
  H   H27       1.0  0.5948057786195515  0.6604863218219245  0.14281741543363735  1.0000
  H   H28       1.0  0.6021848655531578  0.8499756790331223  0.08585723444493598  1.0000
  H   H29       1.0  0.605211812695998  0.17763054780148066  0.06093291250902077  1.0000
  H   H30       1.0  0.5964482369860119  0.34467366168343466  0.11345564618193843  1.0000
  H   H31       1.0  0.6643251295833867  0.3965842502861088  0.8220150905726054  1.0000
  H   H32       1.0  0.6845637338541205  0.5998711462754881  0.8430346998903571  1.0000
  H   H33       1.0  0.6499090568870743  0.09745017955869202  0.36561850170660454  1.0000
  H   H34       1.0  0.673550741693165  0.9028947048547238  0.36801346788622974  1.0000
  H   H35       1.0  0.736123817990597  0.5049056989763308  0.49753030325932357  1.0000
  H   H36       1.0  0.7159230647523956  0.015139049028194185  0.7198971873153285  1.0000
  H   H37       1.0  0.7842606531577753  0.49991065098807386  0.2260348368000763  1.0000
  H   H38       1.0  0.7676812291180837  0.009317146839112939  0.9787497585712657  1.0000
  H   H39       1.0  0.8459951412186439  0.6087401479042517  0.8992984469882663  1.0000
  H   H40       1.0  0.8540890855747695  0.41108467146766314  0.8673081036434436  1.0000
  H   H41       1.0  0.8336573777382748  0.9090826018903424  0.330822841643605  1.0000
  H   H42       1.0  0.8164820994836577  0.10451973895050456  0.33626365532064784  1.0000
  H   H43       1.0  0.8934660857230102  0.16023193726090743  0.6234209277807634  1.0000
  H   H44       1.0  0.9113072771862217  0.3178735783845524  0.6068352480782375  1.0000
  H   H45       1.0  0.9041402986392071  0.6798875884823593  0.5902182146624378  1.0000
  H   H46       1.0  0.9086625114339948  0.8525693712070821  0.6471704890710104  1.0000
  H   H47       1.0  0.998292450650345  0.2735680914390016  0.24779474261075046  1.0000
  H   H48       1.0  0.005360039013039719  0.7649239841157562  0.9655936273640788  1.0000
  H   H49       1.0  0.29108158485694907  0.7563056804512344  0.047197205695212775  1.0000
  H   H50       1.0  0.2210084673731806  0.7494768581615864  0.5593761221217375  1.0000
  H   H51       1.0  0.2504536079127531  0.7258660010884382  0.8117206582460403  1.0000
  H   H52       1.0  0.25258131244062015  0.7757393632579954  0.29498013791252914  1.0000
  H   H53       1.0  0.7758851543908969  0.7379731441653578  0.7009781477593025  1.0000
  H   H54       1.0  0.722333823068648  0.7450444753127091  0.17595434192476128  1.0000
  H   H55       1.0  0.7520362597252831  0.7818620914646084  0.4357688393607575  1.0000
  H   H56       1.0  0.7656068931459281  0.7195703352074738  0.931406836059478  1.0000
  H   H57       1.0  0.24736697833728563  0.22519743417524607  0.24928956259016471  1.0000
  H   H58       1.0  0.24757280201837992  0.27219261659630845  0.7527174082208666  1.0000
  H   H59       1.0  0.2738965428510587  0.2594314490989212  0.994456009253783  1.0000
  H   H60       1.0  0.20813006837726178  0.24566736920387913  0.4783113676040788  1.0000
  H   H61       1.0  0.7705542136508508  0.23283548863826029  0.4932036053031623  1.0000
  H   H62       1.0  0.7254966046786151  0.2618533126006222  0.9976131105797392  1.0000
  H   H63       1.0  0.7727054021122666  0.26906689509822673  0.6936495260262033  1.0000
  H   H64       1.0  0.7534205478360219  0.224407765397913  0.26604165979721484  1.0000
  C   C1        1.0  0.9974544678266271  0.19500638889621902  0.8679097468547506  1.0000
  C   C2        1.0  0.0015724975416337994  0.6706282091109342  0.6007087127138114  1.0000
  C   C3        1.0  0.009108061519204957  0.712940122834186  0.3501302456246295  1.0000
  C   C4        1.0  0.007766032290578023  0.8498566066165603  0.6385332681783794  1.0000
  C   C5        1.0  0.05062679020673242  0.16366808304138455  0.6746099436226529  1.0000
  C   C6        1.0  0.05211366765550567  0.18597477957233274  0.800904871846578  1.0000
  C   C7        1.0  0.056576151582272534  0.30164540529777834  0.3993745173023429  1.0000
  C   C8        1.0  0.05978402627064425  0.32153057609201774  0.5291044403456365  1.0000
  C   C9        1.0  0.06141879533636447  0.8018791916464568  0.8159715548968809  1.0000
  C   C10       1.0  0.061607807948078665  0.695028565885542  0.41428734994493005  1.0000
  C   C11       1.0  0.05783790175455308  0.6723490089347566  0.5416170933163762  1.0000
  C   C12       1.0  0.06532392990965336  0.8320270243383386  0.6939585355504196  1.0000
  C   C13       1.0  0.12258886121466475  0.6995079317556949  0.3516735722306008  1.0000
  C   C14       1.0  0.11182351401968488  0.19533529903057556  0.8710197540671152  1.0000
  C   C15       1.0  0.11562991807939076  0.29292702757737155  0.32419731473125685  1.0000
  C   C16       1.0  0.12189803888023741  0.790137042460852  0.8865358481020713  1.0000
  C   C17       1.0  0.1756494761813113  0.9451679471545603  0.2928306336958004  1.0000
  C   C18       1.0  0.1746154526940755  0.004629297148875485  0.355525278747528  1.0000
  C   C19       1.0  0.18065897931270275  0.05841263823261462  0.2928636259629194  1.0000
  C   C20       1.0  0.16731770183515532  0.511468692095821  0.8621422080633402  1.0000
  C   C21       1.0  0.17707754285354724  0.5642918242625964  0.9374074947877237  1.0000
  C   C22       1.0  0.17059261436881804  0.45079387119028574  0.9168631407852547  1.0000
  C   C23       1.0  0.19945261529428848  0.946041994438206  0.16932710175836316  1.0000
  C   C24       1.0  0.20295946116362432  0.05765560858312163  0.16554718795913792  1.0000
  C   C25       1.0  0.20662069788135345  0.8837225494749209  0.0958582550381205  1.0000
  C   C26       1.0  0.18830673910647586  0.4457783431062178  0.050716037427657616  1.0000
  C   C27       1.0  0.1983569982807171  0.38163481174508057  0.11374128521347956  1.0000
  C   C28       1.0  0.21353988443748267  0.6180755247661158  0.13381636476772055  1.0000
  C   C29       1.0  0.21815022219514216  0.0006019079771822479  0.11074728644918869  1.0000
  C   C30       1.0  0.21450864075096635  0.11643552351006181  0.09382694012739547  1.0000
  C   C31       1.0  0.20225187107567572  0.5577777988382258  0.05946755254417965  1.0000
  C   C32       1.0  0.2099733888498762  0.4984622698944636  0.11680699229394222  1.0000
  C   C33       1.0  0.3027492407671557  0.9943115406845593  0.6299520161717351  1.0000
  C   C34       1.0  0.2892286373483886  0.498603604503233  0.591815825034189  1.0000
  C   C35       1.0  0.29105030435638424  0.37993033152608424  0.5697033604499756  1.0000
  C   C36       1.0  0.3166159529706659  0.9381076898736327  0.5753065694620687  1.0000
  C   C37       1.0  0.303942917660358  0.8818065139918199  0.6469383567290917  1.0000
  C   C38       1.0  0.29926521290778135  0.1092214309005387  0.6156519396085991  1.0000
  C   C39       1.0  0.29467468132462404  0.6140343476945368  0.6028096782896096  1.0000
  C   C40       1.0  0.31535637948630624  0.04891251932785635  0.5609277482115126  1.0000
  C   C41       1.0  0.3013803182262792  0.43881179996152603  0.6472340899896193  1.0000
  C   C42       1.0  0.3022810990532628  0.5508858318705617  0.6622758542157275  1.0000
  C   C43       1.0  0.33128155299090184  0.0453278035746347  0.4286662022397272  1.0000
  C   C44       1.0  0.32954117804120736  0.9332742862752442  0.4415726261840613  1.0000
  C   C45       1.0  0.33687436461045933  0.9873075006649622  0.3737049473170662  1.0000
  C   C46       1.0  0.32575079239475113  0.4324512953272611  0.7719723416138119  1.0000
  C   C47       1.0  0.3373896471991648  0.48948747495299594  0.8450427287099371  1.0000
  C   C48       1.0  0.32954325520795813  0.548218153108503  0.7871323970098396  1.0000
  C   C49       1.0  0.381426935451914  0.7135922594588563  0.3956376046275605  1.0000
  C   C50       1.0  0.3789550180095671  0.1996648283884724  0.8256441371216481  1.0000
  C   C51       1.0  0.38133633787884896  0.2885170566948146  0.3610940276819824  1.0000
  C   C52       1.0  0.38806062818102843  0.7933812751625298  0.8516070431699678  1.0000
  C   C53       1.0  0.4412493024477621  0.681098206706205  0.20282802100503824  1.0000
  C   C54       1.0  0.44887838105579375  0.8194698542713492  0.04288872876825137  1.0000
  C   C55       1.0  0.4501788282484839  0.8040091531156656  0.9094846057334285  1.0000
  C   C56       1.0  0.4402872125336966  0.7032488501143968  0.3311064036213969  1.0000
  C   C57       1.0  0.444541409753643  0.17353251513228757  0.022829052978339856  1.0000
  C   C58       1.0  0.4422911089280416  0.1950584437547909  0.8995914677582367  1.0000
  C   C59       1.0  0.4401095832165681  0.3010842526687198  0.2888020089598319  1.0000
  C   C60       1.0  0.44097802946627945  0.315768618277275  0.15579225894486262  1.0000
  C   C61       1.0  0.4947551517609907  0.6698969431042441  0.12973145391242782  1.0000
  C   C62       1.0  0.5059943031528557  0.7919554615959222  0.8496290147287808  1.0000
  C   C63       1.0  0.5047208454872819  0.8319396094771869  0.10598016384601036  1.0000
  C   C64       1.0  0.4996658338734818  0.2916123470189328  0.34799267306790127  1.0000
  C   C65       1.0  0.4996701886128877  0.7101321608698644  0.39383665835781245  1.0000
  C   C66       1.0  0.5025265155471395  0.16985499938166917  0.08797102323253081  1.0000
  C   C67       1.0  0.4986836247596966  0.2095295484581216  0.8330502258776236  1.0000
  C   C68       1.0  0.4955356043279127  0.3321185670019622  0.09366544313506914  1.0000
  C   C69       1.0  0.5522677970431322  0.6717158318627218  0.1945810892803477  1.0000
  C   C70       1.0  0.5525467242573021  0.6935754100951439  0.3207989210720229  1.0000
  C   C71       1.0  0.5601044978128201  0.8040008286149452  0.9141515495410437  1.0000
  C   C72       1.0  0.5614855080356526  0.828052137608836  0.04300572384110926  1.0000
  C   C73       1.0  0.5571343745638198  0.30564857772954823  0.28673608360092595  1.0000
  C   C74       1.0  0.5554985261809461  0.1986736203944159  0.8937576689149497  1.0000
  C   C75       1.0  0.5583162689828105  0.1827743887241963  0.023903499009890652  1.0000
  C   C76       1.0  0.5536706429294815  0.3284206985177877  0.15899213632451445  1.0000
  C   C77       1.0  0.6114451215980075  0.21428621092932584  0.826987354490421  1.0000
  C   C78       1.0  0.6120940564290576  0.7062413375001078  0.3864291279848956  1.0000
  C   C79       1.0  0.6197057905415907  0.7946559230864956  0.8400257523538938  1.0000
  C   C80       1.0  0.6170924200256237  0.29994600933990195  0.36742752821020436  1.0000
  C   C81       1.0  0.6774969913147769  0.44080373012365465  0.7777758985157058  1.0000
  C   C82       1.0  0.6711675626791074  0.4945637704429525  0.8448998766947267  1.0000
  C   C83       1.0  0.6845472878158777  0.5557964246877125  0.7893718218407473  1.0000
  C   C84       1.0  0.655777524818469  0.9991342227429418  0.37308747930391134  1.0000
  C   C85       1.0  0.6575445757069919  0.05690507138207555  0.4296233941730343  1.0000
  C   C86       1.0  0.6746245697266945  0.9446340445787046  0.43045225697512224  1.0000
  C   C87       1.0  0.7073578092276221  0.4433593161932885  0.6531200518889734  1.0000
  C   C88       1.0  0.7040467133005055  0.5577750930090676  0.661852691136837  1.0000
  C   C89       1.0  0.7132801339598732  0.3821652985112846  0.5840084564788278  1.0000
  C   C90       1.0  0.69444804465899  0.9464427954945008  0.5613510791233309  1.0000
  C   C91       1.0  0.706847751171092  0.886720759074846  0.6315565241857828  1.0000
  C   C92       1.0  0.6886536236624096  0.11860986645040504  0.6277835167600467  1.0000
  C   C93       1.0  0.7187028075323817  0.5009129200868473  0.5977278902895584  1.0000
  C   C94       1.0  0.6801803076197644  0.05912951644399308  0.5580006701593523  1.0000
  C   C95       1.0  0.7062365918455188  0.6183221485309098  0.5930356493060611  1.0000
  C   C96       1.0  0.6955981989271578  0.0042831447574565445  0.6225358069931947  1.0000
  C   C97       1.0  0.8055034525961782  0.5019121488050563  0.126260756275648  1.0000
  C   C98       1.0  0.7818823763171333  0.0030856349920178605  0.08770940953312335  1.0000
  C   C99       1.0  0.8202057206152851  0.4450986498444556  0.05967814600364192  1.0000
  C   C100      1.0  0.7925738154726156  0.8896941690550871  0.08308888365672559  1.0000
  C   C101      1.0  0.8064189851591952  0.38520429227924424  0.12234778200884922  1.0000
  C   C102      1.0  0.8063355238877765  0.6197338938834511  0.14832445229752092  1.0000
  C   C103      1.0  0.7886399974634218  0.12066857935969294  0.0790011080000684  1.0000
  C   C104      1.0  0.8194974940548831  0.5623490863213358  0.07049036134525721  1.0000
  C   C105      1.0  0.7954714716298286  0.9515287138313104  0.15364877634075466  1.0000
  C   C106      1.0  0.7932815751631197  0.06109601784591418  0.1471569521237157  1.0000
  C   C107      1.0  0.8383672007673721  0.5654864764759685  0.9427697946688889  1.0000
  C   C108      1.0  0.8406689655673495  0.45235034485454617  0.9364846697993323  1.0000
  C   C109      1.0  0.8458055375007234  0.5095559964228106  0.8791809551800289  1.0000
  C   C110      1.0  0.8111541317814136  0.9502283151023224  0.28880903757002  1.0000
  C   C111      1.0  0.813448103984104  0.007470067932995761  0.3459623176182496  1.0000
  C   C112      1.0  0.8061490464893133  0.061930989381978094  0.2802362237761315  1.0000
  C   C113      1.0  0.8791318182848962  0.19959667380493362  0.8674165363265818  1.0000
  C   C114      1.0  0.8900060893785899  0.7191662944024575  0.33328552695443386  1.0000
  C   C115      1.0  0.8881301778105452  0.7976545867922461  0.8809341301836785  1.0000
  C   C116      1.0  0.8819659678150987  0.29178102117485366  0.3445339119417846  1.0000
  C   C117      1.0  0.9356377495875052  0.17202245264714708  0.6677984258118322  1.0000
  C   C118      1.0  0.9476063141695369  0.307996871805697  0.5383206586459001  1.0000
  C   C119      1.0  0.9425437387121663  0.29277677785310363  0.40750247488381214  1.0000
  C   C120      1.0  0.9404457790225994  0.18811900077396176  0.7995304404636154  1.0000
  C   C121      1.0  0.9467212717723895  0.6851970292124646  0.5382020706154259  1.0000
  C   C122      1.0  0.9500154920439114  0.703848410273192  0.40393219411284326  1.0000
  C   C123      1.0  0.9504031883535362  0.8095397781986966  0.8136592459491738  1.0000
  C   C124      1.0  0.9515123850753129  0.8373193934895243  0.6944839176135862  1.0000
  C   C125      1.0  0.9926924935667824  0.15909373895779982  0.6135346011060729  1.0000
  C   C126      1.0  0.9984857141360882  0.28726345289409627  0.34330975990869095  1.0000
  C   C127      1.0  0.005209989901236076  0.32079002252181166  0.6009806971299767  1.0000
  C   C128      1.0  0.004407511516085083  0.79217868477312  0.8729732216630115  1.0000
  N   N1        1.0  0.009899814490881908  0.8734363903915572  0.49813155550722055  1.0000
  N   N2        1.0  0.5063178196993905  0.8494471905869135  0.25392948335612503  1.0000
  N   N3        1.0  0.9928734836974956  0.14189811642463274  0.46609470012832493  1.0000
  N   N4        1.0  0.5041639352298987  0.15187666348798604  0.2260767329435661  1.0000
  N   N5        1.0  0.9926445796161719  0.6577958831850159  0.7420116445517607  1.0000
  N   N6        1.0  0.005374298028402961  0.33999021532264634  0.7409648211037692  1.0000
  N   N7        1.0  0.35658697783615084  0.4852303910269322  0.9925096507890748  1.0000
  N   N8        1.0  0.15268701018909436  0.5202663927564752  0.7257628103861672  1.0000
  N   N9        1.0  0.15080900111325918  0.0026201295367586637  0.49120980347715143  1.0000
  N   N10       1.0  0.8317983167415207  0.009248310954896422  0.4787456251185953  1.0000
  N   N11       1.0  0.6375133966951678  0.9963466209893448  0.23331481511793148  1.0000
  N   N12       1.0  0.4862048046932849  0.6447089970491522  0.9971329987810058  1.0000
  N   N13       1.0  0.8652963765895837  0.510112315737176  0.7392913182342394  1.0000
  N   N14       1.0  0.6619622176200501  0.49224992817850954  0.9926365286020276  1.0000
  N   N15       1.0  0.3508993831276263  0.9814642913924232  0.23551470316766496  1.0000
  N   N16       1.0  0.4904473360175922  0.34683243697513005  0.960490340257005  1.0000
  O   O1        1.0  0.1194711432843715  0.25778190085909364  0.22478998795956331  1.0000
  O   O2        1.0  0.1232564625149014  0.7549156700101674  0.9833724129184366  1.0000
  O   O3        1.0  0.12473539630161984  0.732289297670054  0.24793102779885753  1.0000
  O   O4        1.0  0.10982025237750563  0.22919742441369828  0.970948201109766  1.0000
  O   O5        1.0  0.16385815193620357  0.6675898223108871  0.40729598605508904  1.0000
  O   O6        1.0  0.15939471905555883  0.16801218209118804  0.8311177480691712  1.0000
  O   O7        1.0  0.1585487869283993  0.32548344579939037  0.37420094697626216  1.0000
  O   O8        1.0  0.16780257283923566  0.8206132837000618  0.8414943942770877  1.0000
  O   O9        1.0  0.17724968963609777  0.8373561703143013  0.13793645068832733  1.0000
  O   O10       1.0  0.18269368537254832  0.16196218086768316  0.13715934445677577  1.0000
  O   O11       1.0  0.18991988520839395  0.6637783173767204  0.07953214496575899  1.0000
  O   O12       1.0  0.17009257959924232  0.33605030426543664  0.06716832390715172  1.0000
  O   O13       1.0  0.23726273918510798  0.24450813265246507  0.9488515962521717  1.0000
  O   O14       1.0  0.24524022717575325  0.11394657155297683  0.9918827055512234  1.0000
  O   O15       1.0  0.2428236506244957  0.8860033578699956  0.9992346415093106  1.0000
  O   O16       1.0  0.23642650653507377  0.3791025416368018  0.20837407756945683  1.0000
  O   O17       1.0  0.23830654990216632  0.26434807863930193  0.2034423651914429  1.0000
  O   O18       1.0  0.24703646048708214  0.6164227309342729  0.23840869096932063  1.0000
  O   O19       1.0  0.24594725014107602  0.7379452387752292  0.2426370572622581  1.0000
  O   O20       1.0  0.257234097821413  0.7405501483127456  0.498592573157476  1.0000
  O   O21       1.0  0.24920041500676246  0.760315731486956  0.003020296552855184  1.0000
  O   O22       1.0  0.2613749249743942  0.7619892625201289  0.7535565311446039  1.0000
  O   O23       1.0  0.2508413124193764  0.23352108044723546  0.7059908778452569  1.0000
  O   O24       1.0  0.27156511309679304  0.8841168833371041  0.7452420869269387  1.0000
  O   O25       1.0  0.26947858657424245  0.10854544865405694  0.723055806898696  1.0000
  O   O26       1.0  0.2686136527688617  0.6152636618825074  0.49448261930102455  1.0000
  O   O27       1.0  0.2573586554023901  0.38335025790957933  0.46756621461394354  1.0000
  O   O28       1.0  0.2513682737930364  0.255389014463222  0.45046290614744  1.0000
  O   O29       1.0  0.3144740987717309  0.15731087927934026  0.5449693445620315  1.0000
  O   O30       1.0  0.3231729304476107  0.8330574818756823  0.591901981534147  1.0000
  O   O31       1.0  0.315419964990061  0.32745246742622197  0.6139918924772764  1.0000
  O   O32       1.0  0.31883383453090686  0.6582459904620497  0.6636422693935852  1.0000
  O   O33       1.0  0.3392559284323377  0.6901207729345518  0.33205572680974393  1.0000
  O   O34       1.0  0.3326712099359743  0.1723791985550071  0.8841400476084692  1.0000
  O   O35       1.0  0.33634771261678315  0.3191571990451756  0.31038374022983684  1.0000
  O   O36       1.0  0.3422403749534549  0.8170223347390653  0.9155898787031695  1.0000
  O   O37       1.0  0.377725288184487  0.2561703628382161  0.468256818978356  1.0000
  O   O38       1.0  0.3796592248561783  0.7610996198082436  0.7497921026008406  1.0000
  O   O39       1.0  0.38232475800147564  0.7361962844719891  0.5075895395654367  1.0000
  O   O40       1.0  0.3818179523613779  0.2229118609868926  0.7115514922184377  1.0000
  O   O41       1.0  0.6186489185625712  0.7578460751763662  0.7431384515464148  1.0000
  O   O42       1.0  0.6136053938770932  0.2758162836321278  0.4804648241407393  1.0000
  O   O43       1.0  0.608758494479947  0.24536001202847083  0.724709083475084  1.0000
  O   O44       1.0  0.6167047632830029  0.744660770330428  0.4792261075079557  1.0000
  O   O45       1.0  0.660352156023302  0.1970311213646937  0.8887379917099396  1.0000
  O   O46       1.0  0.6584011303801891  0.6756898888301873  0.3441765316095657  1.0000
  O   O47       1.0  0.6670725733307276  0.822682894163799  0.8848547655870758  1.0000
  O   O48       1.0  0.663923530730895  0.3269030803801648  0.31801200679782915  1.0000
  O   O49       1.0  0.6929873753176669  0.3351249299108679  0.6435638933290034  1.0000
  O   O50       1.0  0.675046810970778  0.664271401882135  0.638057108699578  1.0000
  O   O51       1.0  0.6648972064722789  0.16289080803674447  0.5621267514990015  1.0000
  O   O52       1.0  0.6844764576633473  0.8382001595395863  0.5783616516510502  1.0000
  O   O53       1.0  0.7430813772058301  0.7472394608468381  0.4889749567016583  1.0000
  O   O54       1.0  0.7394355581795755  0.6208795792093807  0.49597581236818405  1.0000
  O   O55       1.0  0.7396436092812936  0.38418082515033  0.47334545805434214  1.0000
  O   O56       1.0  0.7376635981059657  0.8878498893000323  0.737069999956893  1.0000
  O   O57       1.0  0.7227730535979008  0.12086286361850064  0.7338084454314414  1.0000
  O   O58       1.0  0.7417181721279129  0.7592147115975223  0.7385903683765148  1.0000
  O   O59       1.0  0.7441313115218793  0.23401071306797588  0.7014623059808233  1.0000
  O   O60       1.0  0.7656094969868742  0.249826941015793  0.9623310081971977  1.0000
  O   O61       1.0  0.7332393278706281  0.25164776448240994  0.4520267471759148  1.0000
  O   O62       1.0  0.7597963075068805  0.26268292424130335  0.22030000214642323  1.0000
  O   O63       1.0  0.7737546544094217  0.38664822465746274  0.2297636032719948  1.0000
  O   O64       1.0  0.7563438769792798  0.7451413498047206  0.23288471947197345  1.0000
  O   O65       1.0  0.7722163846443006  0.6163327743633229  0.24877815043544654  1.0000
  O   O66       1.0  0.758195755197156  0.1277209633546305  0.9818560889813372  1.0000
  O   O67       1.0  0.7644624854825138  0.8907157479168878  0.9759637387592655  1.0000
  O   O68       1.0  0.7662838851680815  0.7549109203920042  0.9886217020610495  1.0000
  O   O69       1.0  0.8298131970289836  0.6683325850805858  0.09989758906710026  1.0000
  O   O70       1.0  0.8282555545981106  0.33731400428713043  0.06689398691959836  1.0000
  O   O71       1.0  0.8208105098462579  0.8452305100607057  0.1376237701826132  1.0000
  O   O72       1.0  0.8205631552562579  0.1653838833723538  0.13776255637238558  1.0000
  O   O73       1.0  0.8352539327921015  0.17446877634479002  0.8148180197808615  1.0000
  O   O74       1.0  0.8424305551985186  0.6885494280854436  0.35989215668273145  1.0000
  O   O75       1.0  0.8432935246927733  0.8245996872165051  0.8220073207811636  1.0000
  O   O76       1.0  0.8375990654751693  0.31056931094954265  0.413535492382634  1.0000
  O   O77       1.0  0.8868728539471973  0.7658985924845988  0.9851870157438256  1.0000
  O   O78       1.0  0.8816352950699786  0.2728285284520638  0.2268747998585855  1.0000
  O   O79       1.0  0.8829203863207357  0.23323839278960826  0.9736642957091864  1.0000
  O   O80       1.0  0.8907096651040303  0.7600551304167998  0.23976991690826918  1.0000
  O   O81       1.0  0.9630509748453939  0.8927715842701113  0.44752945626481516  1.0000
  O   O82       1.0  0.05941631896272547  0.8667440506796452  0.44164186260254373  1.0000
  O   O83       1.0  0.45500555031966433  0.848775493059956  0.30867525632149934  1.0000
  O   O84       1.0  0.5564574816885874  0.8609095703553813  0.3000075713271256  1.0000
  O   O85       1.0  0.04616802038899979  0.1360710799861336  0.4225239701309472  1.0000
  O   O86       1.0  0.9430938821209108  0.14191511675756094  0.4074577469234639  1.0000
  O   O87       1.0  0.45853847975192596  0.12149590454276936  0.27219585946089897  1.0000
  O   O88       1.0  0.548824916485611  0.16380183504536042  0.2918957674224324  1.0000
  O   O89       1.0  0.9381897904140183  0.6500096812480901  0.7889556796109846  1.0000
  O   O90       1.0  0.040065713623670805  0.6531696981621951  0.8089985769587701  1.0000
  O   O91       1.0  0.9558846029541671  0.34586296028493774  0.7976152135518316  1.0000
  O   O92       1.0  0.058737386215624306  0.34358017767005417  0.7906403681085985  1.0000
  O   O93       1.0  0.3613776701129461  0.532716243119404  0.05558593296078731  1.0000
  O   O94       1.0  0.3629483938225856  0.43266349310704727  0.036653955717325916  1.0000
  O   O95       1.0  0.16362016380454297  0.5728800948559926  0.6826205510627579  1.0000
  O   O96       1.0  0.12622454262541302  0.477806544738086  0.6654143483997366  1.0000
  O   O97       1.0  0.14383785381141004  0.053667598442145754  0.5489402910384936  1.0000
  O   O98       1.0  0.13987448261944113  0.9523486072015341  0.5503144546648775  1.0000
  O   O99       1.0  0.8230420830077811  0.05174959659881837  0.5514309365390025  1.0000
  O   O100      1.0  0.8603965868414424  0.9631922993206707  0.5195897239071318  1.0000
  O   O101      1.0  0.6320769618114942  0.044816102935152695  0.17011993189797944  1.0000
  O   O102      1.0  0.6305249666073048  0.9441781811521386  0.18795536640122826  1.0000
  O   O103      1.0  0.4360613192800983  0.6506812062447492  0.9399530400881698  1.0000
  O   O104      1.0  0.5304438828284783  0.6153835760779266  0.9479999101121561  1.0000
  O   O105      1.0  0.8607129759582309  0.5593622830382348  0.6760936643157784  1.0000
  O   O106      1.0  0.8872884830125006  0.4623964800389843  0.6956343706185543  1.0000
  O   O107      1.0  0.6704427808916581  0.5409640263563847  0.054514496280348115  1.0000
  O   O108      1.0  0.6564849490340687  0.43994252031554854  0.040991021479847484  1.0000
  O   O109      1.0  0.3669246829988798  0.031053743703556926  0.17648198439672538  1.0000
  O   O110      1.0  0.35818806389133584  0.9291417328063809  0.1842013211859459  1.0000
  O   O111      1.0  0.44114170810823067  0.32549773226657736  0.9037424213557195  1.0000
  O   O112      1.0  0.5281414646585607  0.3841568973885689  0.9079038077584419  1.0000
