data_image0
_chemical_formula_structural       Al16H64C128N16O112
_chemical_formula_sum              "Al16 H64 C128 N16 O112"
_cell_length_a       21.62769
_cell_length_b       21.646490000000004
_cell_length_c       10.3079
_cell_angle_alpha    89.86891
_cell_angle_beta     90.04471
_cell_angle_gamma    90.32585

_space_group_name_H-M_alt    "P 1"
_space_group_IT_number       1

loop_
  _space_group_symop_operation_xyz
  'x, y, z'

loop_
  _atom_site_type_symbol
  _atom_site_label
  _atom_site_symmetry_multiplicity
  _atom_site_fract_x
  _atom_site_fract_y
  _atom_site_fract_z
  _atom_site_occupancy
  Al  Al1       1.0  0.18462149299656014  0.24552436272389228  0.08162791645198547  1.0000
  Al  Al2       1.0  0.1847232078682003  0.7491190455793022  0.11666626292870998  1.0000
  Al  Al3       1.0  0.24903695628066916  0.17733463785466094  0.8383203010798485  1.0000
  Al  Al4       1.0  0.24754297545609846  0.6825561977828399  0.38319566170661806  1.0000
  Al  Al5       1.0  0.2540161572892794  0.8199973575689297  0.8622689219238951  1.0000
  Al  Al6       1.0  0.2512454116522141  0.3222117754424574  0.3418793247149709  1.0000
  Al  Al7       1.0  0.324270194629325  0.7448931858659948  0.6190462868450457  1.0000
  Al  Al8       1.0  0.3192936157853799  0.24210719119344662  0.5803837832872356  1.0000
  Al  Al9       1.0  0.6805387353894612  0.7524977926633244  0.6100256598747831  1.0000
  Al  Al10      1.0  0.6773813778207026  0.25571062599345384  0.600810094473713  1.0000
  Al  Al11      1.0  0.7516405477683992  0.6786611896956488  0.35829443668600425  1.0000
  Al  Al12      1.0  0.7470081519742732  0.18039641807411938  0.8531575031604406  1.0000
  Al  Al13      1.0  0.7533489461695846  0.32529843029953104  0.3485996500678645  1.0000
  Al  Al14      1.0  0.7518104553015306  0.8289119463862437  0.8556586290026834  1.0000
  Al  Al15      1.0  0.8243377774270239  0.2519904552268936  0.09705266086754434  1.0000
  Al  Al16      1.0  0.8198639689149498  0.7538393120686103  0.10149547883702041  1.0000
  H   H1        1.0  0.986742498526719  0.20295952108152338  0.9688663937111928  1.0000
  H   H2        1.0  0.00849970457360179  0.7301728541161487  0.2625288962437523  1.0000
  H   H3        1.0  0.10065385813897079  0.14549532515168065  0.6506229705292529  1.0000
  H   H4        1.0  0.09916947090090006  0.3095011167357373  0.5884605954816631  1.0000
  H   H5        1.0  0.09057056101400343  0.6773861175045977  0.6252568725517048  1.0000
  H   H6        1.0  0.10083623104001217  0.8505606240235645  0.6469458636146177  1.0000
  H   H7        1.0  0.17190071405945526  0.9033335157160443  0.33965233310258247  1.0000
  H   H8        1.0  0.17596292815988493  0.10365229634913216  0.32525509485605514  1.0000
  H   H9        1.0  0.1535357299402119  0.6034465788585713  0.9097398650647569  1.0000
  H   H10       1.0  0.16106905367521068  0.4058512513978503  0.8730086635147716  1.0000
  H   H11       1.0  0.22891241792331604  0.9923446710206425  0.9865845450122219  1.0000
  H   H12       1.0  0.22797547219516878  0.4934840330109621  0.2252630003284339  1.0000
  H   H13       1.0  0.27587276498812235  0.9973279728493034  0.7121539115357696  1.0000
  H   H14       1.0  0.26412464789607026  0.4941483267827004  0.4933828110947121  1.0000
  H   H15       1.0  0.3455382572198879  0.08912900992501928  0.37136193367474857  1.0000
  H   H16       1.0  0.3423707390245698  0.887116223684529  0.386287344085602  1.0000
  H   H17       1.0  0.3011762605941822  0.39014114505092223  0.8365613081914098  1.0000
  H   H18       1.0  0.3283778549234973  0.5896574389650168  0.837482445149197  1.0000
  H   H19       1.0  0.398766518207595  0.6474054886155002  0.1523840892601124  1.0000
  H   H20       1.0  0.40915495320533274  0.8390091016132716  0.10111895390943197  1.0000
  H   H21       1.0  0.3957942357373213  0.16156521990645828  0.05897084759863358  1.0000
  H   H22       1.0  0.3955893829380773  0.34032258709153484  0.12783541137144736  1.0000
  H   H23       1.0  0.5032859638740939  0.7722662918068475  0.7573620224880127  1.0000
  H   H24       1.0  0.5058558786444339  0.2966575457212165  0.4672875032988073  1.0000
  H   H25       1.0  0.5001431444841601  0.7227734764514957  0.48252265665407057  1.0000
  H   H26       1.0  0.499539908397238  0.24247957157215713  0.7419262185615987  1.0000
  H   H27       1.0  0.5995580314325035  0.6651954462032383  0.14794791087767944  1.0000
  H   H28       1.0  0.6044376446225153  0.8325825807123762  0.0876657613302823  1.0000
  H   H29       1.0  0.5943890828234469  0.17625785945040703  0.08181028875611689  1.0000
  H   H30       1.0  0.5942285181475866  0.3549644022461396  0.11199165604423128  1.0000
  H   H31       1.0  0.6739249791815387  0.4012953488190092  0.8148970749106915  1.0000
  H   H32       1.0  0.6672029944747554  0.5993467002793993  0.8450404023321274  1.0000
  H   H33       1.0  0.649536529291831  0.1023436524868356  0.39322933308027064  1.0000
  H   H34       1.0  0.6576006130570505  0.902950797755255  0.39309504927557526  1.0000
  H   H35       1.0  0.7343953141743024  0.5110226574594776  0.49551619364903843  1.0000
  H   H36       1.0  0.725022352824791  0.007873650048085601  0.7114231485352306  1.0000
  H   H37       1.0  0.7754091979675659  0.5029488958666258  0.20342117749696279  1.0000
  H   H38       1.0  0.7749694114457509  0.0025307131412330257  0.9975386228338659  1.0000
  H   H39       1.0  0.8412792139802259  0.6012552558003417  0.8532116675999192  1.0000
  H   H40       1.0  0.8632976972707911  0.4038422784338688  0.8899935294706807  1.0000
  H   H41       1.0  0.815450507507349  0.8975301033106559  0.3428422869965732  1.0000
  H   H42       1.0  0.8262535345289348  0.10345472952458602  0.35118693532046286  1.0000
  H   H43       1.0  0.8971248050184465  0.14942696279459416  0.6229680252891308  1.0000
  H   H44       1.0  0.9058190654644457  0.3333738135238693  0.5682471837596743  1.0000
  H   H45       1.0  0.8968480464085203  0.6676621754261767  0.590187703024201  1.0000
  H   H46       1.0  0.9009749367814625  0.8549667926375006  0.6460604071611932  1.0000
  H   H47       1.0  0.0007735307113579728  0.26740162540127704  0.22962274875966604  1.0000
  H   H48       1.0  0.9921884865811345  0.772914574751649  0.9621642350600773  1.0000
  H   H49       1.0  0.28519674552401786  0.7513884553463513  0.04121863009377342  1.0000
  H   H50       1.0  0.23353588145966697  0.7695208123855285  0.5476129731717735  1.0000
  H   H51       1.0  0.24353232391079974  0.7178666050312841  0.7947309649106561  1.0000
  H   H52       1.0  0.25178860604782455  0.7731127802554776  0.2981019564884604  1.0000
  H   H53       1.0  0.7846915992159204  0.7635562525722901  0.6615826557169268  1.0000
  H   H54       1.0  0.7202181583489313  0.7671556708943748  0.21235482432474853  1.0000
  H   H55       1.0  0.7489741819937614  0.7840566347304324  0.429084047052082  1.0000
  H   H56       1.0  0.7556701829676902  0.7294284809832482  0.9221576448947463  1.0000
  H   H57       1.0  0.2598719293577067  0.2224064470388774  0.23736736138185285  1.0000
  H   H58       1.0  0.23555956680119106  0.2688772715538796  0.720090685099327  1.0000
  H   H59       1.0  0.2758318702737075  0.27225829815909436  0.961595948885721  1.0000
  H   H60       1.0  0.22405852666683224  0.24348953197335882  0.48584322919205397  1.0000
  H   H61       1.0  0.7814353911405048  0.2512993017241037  0.4928458175152803  1.0000
  H   H62       1.0  0.7223894185397494  0.24757828997338197  0.018821995664713986  1.0000
  H   H63       1.0  0.7705739724937573  0.28089996457947286  0.7487820452355142  1.0000
  H   H64       1.0  0.7453035275112282  0.22557418047644004  0.2508753344346384  1.0000
  C   C1        1.0  0.9970787648682675  0.19184411502972457  0.8713259502069911  1.0000
  C   C2        1.0  0.9939394671985211  0.676407715637323  0.6169069156626048  1.0000
  C   C3        1.0  0.0030541232114587036  0.7093321301297734  0.3584567815741628  1.0000
  C   C4        1.0  0.004437890612912018  0.8476454974052666  0.629408654642369  1.0000
  C   C5        1.0  0.054118476298393364  0.1561225591157467  0.6856865084374135  1.0000
  C   C6        1.0  0.05322767359113908  0.1822138400661935  0.8097317720815647  1.0000
  C   C7        1.0  0.058357960245062714  0.2895779817228056  0.3944850745688433  1.0000
  C   C8        1.0  0.06029689277971971  0.3099019904155525  0.5228522757288254  1.0000
  C   C9        1.0  0.059025836103358965  0.8120099437779769  0.8261336601760662  1.0000
  C   C10       1.0  0.05645095827698574  0.7023500554806983  0.4271624453994361  1.0000
  C   C11       1.0  0.051226457684005654  0.6825384228404093  0.5534321870425875  1.0000
  C   C12       1.0  0.06057057531368243  0.8388987873561099  0.6993159537246881  1.0000
  C   C13       1.0  0.11691111226391035  0.713254357619812  0.3583439832946346  1.0000
  C   C14       1.0  0.11743043082935883  0.19290238223384387  0.8684880583786836  1.0000
  C   C15       1.0  0.11850549247033024  0.2850171796769083  0.3207801412464851  1.0000
  C   C16       1.0  0.11779454877816335  0.7965915461018129  0.8916912516988504  1.0000
  C   C17       1.0  0.1802491488803385  0.9477126446949865  0.2847940858819453  1.0000
  C   C18       1.0  0.17450831425716593  0.005366389895137967  0.3392493410192794  1.0000
  C   C19       1.0  0.1853810078266325  0.05995817377750997  0.26986825831410355  1.0000
  C   C20       1.0  0.15437919893421967  0.5059540293615293  0.8851007242578282  1.0000
  C   C21       1.0  0.16312751620609994  0.5590299544364581  0.9540911821292081  1.0000
  C   C22       1.0  0.1702040249883209  0.44748823225884204  0.9291541407856769  1.0000
  C   C23       1.0  0.2032433401268469  0.9447199032953164  0.1616924022415569  1.0000
  C   C24       1.0  0.201230604500441  0.055533666585005026  0.13797984471644523  1.0000
  C   C25       1.0  0.21169089013635806  0.8830156214469838  0.09507796289133665  1.0000
  C   C26       1.0  0.19034604939177033  0.4437589631036069  0.05715703834165521  1.0000
  C   C27       1.0  0.2013930411431132  0.3824102732988824  0.11589947211636202  1.0000
  C   C28       1.0  0.2002711075217572  0.6163780113059236  0.1437410815269333  1.0000
  C   C29       1.0  0.21461645427973924  0.9977404556301535  0.08719396744787083  1.0000
  C   C30       1.0  0.21629349461393307  0.11548595225738  0.07822754857305067  1.0000
  C   C31       1.0  0.190386492400446  0.555727870352118  0.0744654250641815  1.0000
  C   C32       1.0  0.20421991341329834  0.4980343268098209  0.13165094843721603  1.0000
  C   C33       1.0  0.29445045835708383  0.9922548889400097  0.6182835832010515  1.0000
  C   C34       1.0  0.2828642964488555  0.4970135964606199  0.591912542396881  1.0000
  C   C35       1.0  0.2846281935736049  0.3792409554454823  0.5835224132897989  1.0000
  C   C36       1.0  0.3044861579680129  0.9364615604917511  0.5564671690556564  1.0000
  C   C37       1.0  0.30177252461348075  0.8763969883592225  0.6315695064993144  1.0000
  C   C38       1.0  0.2996001032657028  0.10878519993307166  0.6163379009187175  1.0000
  C   C39       1.0  0.2853588994109159  0.611855689235671  0.6050615489507591  1.0000
  C   C40       1.0  0.310570523014429  0.04794426562191177  0.5542228120709605  1.0000
  C   C41       1.0  0.29128371380531093  0.43787086843307155  0.6515846270124683  1.0000
  C   C42       1.0  0.2961201046762833  0.5500862615797605  0.661375222949251  1.0000
  C   C43       1.0  0.3381008481049996  0.0456529449289449  0.4295891436440224  1.0000
  C   C44       1.0  0.3318220343882091  0.9330489672588956  0.4351056713144581  1.0000
  C   C45       1.0  0.3395147346402936  0.9881659007886123  0.36791279238281077  1.0000
  C   C46       1.0  0.3072112794988255  0.4352052583889108  0.7848312300342528  1.0000
  C   C47       1.0  0.3231815936346773  0.4894677125825711  0.8437690349188757  1.0000
  C   C48       1.0  0.3168091058408224  0.547059199338359  0.7890456584331154  1.0000
  C   C49       1.0  0.38505231151137803  0.6919890938722012  0.3964140046026294  1.0000
  C   C50       1.0  0.38257559834109445  0.20827307388162142  0.8148492473769064  1.0000
  C   C51       1.0  0.383633620575395  0.2983452381428345  0.36368080264486946  1.0000
  C   C52       1.0  0.38569357110968355  0.7908886305992708  0.8561452503907008  1.0000
  C   C53       1.0  0.44278095803727147  0.6633894486726318  0.19477590547445606  1.0000
  C   C54       1.0  0.44984114024130545  0.8225094708059878  0.048204896907295826  1.0000
  C   C55       1.0  0.4463772817359144  0.7995229738685178  0.9220768503172879  1.0000
  C   C56       1.0  0.4442255582136236  0.6853287341122123  0.32613706174276513  1.0000
  C   C57       1.0  0.44156354936514236  0.1762521481003599  0.022086196305667643  1.0000
  C   C58       1.0  0.4436690745041008  0.20407777231962604  0.8979487083886191  1.0000
  C   C59       1.0  0.4454204903792454  0.3117828564324102  0.2972929911045862  1.0000
  C   C60       1.0  0.44277763020422584  0.33684810204612514  0.17241408869589633  1.0000
  C   C61       1.0  0.49973725536728375  0.6575421416591891  0.12537099728444792  1.0000
  C   C62       1.0  0.5028920581277015  0.7857832019471166  0.8602734931856295  1.0000
  C   C63       1.0  0.5070000776417358  0.8339227348166464  0.10888821274857237  1.0000
  C   C64       1.0  0.5033662955548781  0.3062885553332074  0.3618414633802016  1.0000
  C   C65       1.0  0.4979959650341192  0.702290434978058  0.39070588545861884  1.0000
  C   C66       1.0  0.499226543301799  0.1727603784571999  0.0900823624354845  1.0000
  C   C67       1.0  0.49774569190264284  0.2241659164182912  0.845305882979804  1.0000
  C   C68       1.0  0.49835053756026954  0.3518615677575526  0.1086991717534219  1.0000
  C   C69       1.0  0.5527421617742636  0.6713733615209287  0.1934328025813217  1.0000
  C   C70       1.0  0.5525204683240247  0.692161694634435  0.31994384431881107  1.0000
  C   C71       1.0  0.5605017092833632  0.8006216230590854  0.9124592794576991  1.0000
  C   C72       1.0  0.5623784255968303  0.8220074331206926  0.044131501525147734  1.0000
  C   C73       1.0  0.5584126090242361  0.32225582080273285  0.29945827258666885  1.0000
  C   C74       1.0  0.554676037448389  0.21314976239100986  0.9043081958569527  1.0000
  C   C75       1.0  0.5540500929364265  0.18923294555334594  0.032343470616025057  1.0000
  C   C76       1.0  0.5552012385571921  0.3432822240001477  0.17256940012320413  1.0000
  C   C77       1.0  0.6150213626622365  0.2151770791247982  0.8330358194095362  1.0000
  C   C78       1.0  0.6132338425258754  0.7018993212872119  0.3872210423194025  1.0000
  C   C79       1.0  0.6166192568923458  0.7888532273868625  0.8443192591657671  1.0000
  C   C80       1.0  0.6188706408893987  0.30896476267292844  0.36675175717219305  1.0000
  C   C81       1.0  0.6819030632465085  0.44677097845668823  0.7808295022227101  1.0000
  C   C82       1.0  0.6708775099710625  0.49955531307949586  0.8550457487462682  1.0000
  C   C83       1.0  0.6806380424397226  0.5563695823931925  0.7942891966300835  1.0000
  C   C84       1.0  0.6587004151233611  0.003047642481085807  0.37147985231377617  1.0000
  C   C85       1.0  0.6630136940672862  0.06017025809389332  0.437462073755838  1.0000
  C   C86       1.0  0.6678508211677128  0.9473567479758981  0.43516457097082123  1.0000
  C   C87       1.0  0.7017480873569768  0.4500671720890007  0.6518923918566472  1.0000
  C   C88       1.0  0.7052181953146156  0.5610949018596696  0.6665098530981408  1.0000
  C   C89       1.0  0.7099152342254108  0.388386389118773  0.584441878709235  1.0000
  C   C90       1.0  0.6903133359366905  0.9440071339770533  0.5636307411711001  1.0000
  C   C91       1.0  0.6989081574553435  0.8835486418521342  0.6338435466290656  1.0000
  C   C92       1.0  0.7017462644248487  0.11860357299375512  0.6340680479084944  1.0000
  C   C93       1.0  0.7151653645877836  0.5083737861463005  0.5901033587318111  1.0000
  C   C94       1.0  0.6896492308244564  0.05761202762128409  0.5595184075795496  1.0000
  C   C95       1.0  0.7080721068768913  0.6202518327100853  0.5950874378937234  1.0000
  C   C96       1.0  0.7022334017190738  0.0007034642213483189  0.6217675289676765  1.0000
  C   C97       1.0  0.7968564378126841  0.5037104184700201  0.10535310316238755  1.0000
  C   C98       1.0  0.7871432266858281  0.004901330139320148  0.10336619509814292  1.0000
  C   C99       1.0  0.8160803769245115  0.4472523560776489  0.04881995802164097  1.0000
  C   C100      1.0  0.7866037362447202  0.8874323189925054  0.08554115265456767  1.0000
  C   C101      1.0  0.8072963563295245  0.38603809899848485  0.12309307177390953  1.0000
  C   C102      1.0  0.7972632221662216  0.6214046278174739  0.11496177790666576  1.0000
  C   C103      1.0  0.7869089943750164  0.11913585010119569  0.09476891359168657  1.0000
  C   C104      1.0  0.8067631030600845  0.5586342053277701  0.046464452952852384  1.0000
  C   C105      1.0  0.7947442832455897  0.9478905543074763  0.167520043653669  1.0000
  C   C106      1.0  0.7969437273716854  0.06109745288705559  0.16816189594799408  1.0000
  C   C107      1.0  0.8296907888481829  0.5603188086179225  0.9147159386930224  1.0000
  C   C108      1.0  0.8466554931047359  0.44834782701463605  0.92946009051189  1.0000
  C   C109      1.0  0.8507330642125666  0.5044373866997165  0.863610033134943  1.0000
  C   C110      1.0  0.812916053484958  0.9442733127325367  0.2979249005105996  1.0000
  C   C111      1.0  0.8237687090636076  0.00176142411681246  0.36075006816319927  1.0000
  C   C112      1.0  0.815104518173758  0.05852197480558305  0.29969093365081695  1.0000
  C   C113      1.0  0.8844700139293962  0.19539059859579808  0.8666264536022936  1.0000
  C   C114      1.0  0.8841953120253583  0.7058722903131667  0.3432802960135877  1.0000
  C   C115      1.0  0.888165101490091  0.8055368850475664  0.881635061608885  1.0000
  C   C116      1.0  0.8855952170201896  0.2888372764398007  0.3337626866398751  1.0000
  C   C117      1.0  0.9417157485940532  0.15843600221423051  0.672610408313383  1.0000
  C   C118      1.0  0.9483996869051662  0.31846738541088593  0.5273857370612159  1.0000
  C   C119      1.0  0.9487493530934684  0.29634923302695665  0.39653136153492136  1.0000
  C   C120      1.0  0.9432836493101202  0.18403905635615667  0.7992588780551012  1.0000
  C   C121      1.0  0.939531035473047  0.6782890806990636  0.5442975995740243  1.0000
  C   C122      1.0  0.9461270095052533  0.6975630326632739  0.4162916097996267  1.0000
  C   C123      1.0  0.9463445418040369  0.8141021878624215  0.8108159145877643  1.0000
  C   C124      1.0  0.9463076321518418  0.8401553204726656  0.6884949315199551  1.0000
  C   C125      1.0  0.9964905957473905  0.14026742810565565  0.615091584267685  1.0000
  C   C126      1.0  0.0032004917641709906  0.2815988422133949  0.33179358826863714  1.0000
  C   C127      1.0  0.005758023883967055  0.32293681422381265  0.587491209952572  1.0000
  C   C128      1.0  0.00022566757979439964  0.7959522657844663  0.8732857876930868  1.0000
  N   N1        1.0  0.01427321083878395  0.8725983255920438  0.49419198020641786  1.0000
  N   N2        1.0  0.5125904663386858  0.8468081093797397  0.25525034014018777  1.0000
  N   N3        1.0  0.9979635423690257  0.12216229628468725  0.48184561862297354  1.0000
  N   N4        1.0  0.4969645006352719  0.15466690230440228  0.23038753042754198  1.0000
  N   N5        1.0  0.9942351247579121  0.6572895575309298  0.7487336239806199  1.0000
  N   N6        1.0  0.01516586340562515  0.33127751228649976  0.733465612236527  1.0000
  N   N7        1.0  0.3413230481050537  0.48848266064476625  0.9792351440104383  1.0000
  N   N8        1.0  0.1326784523827513  0.5100944372693322  0.7431972357570067  1.0000
  N   N9        1.0  0.15822554566025807  0.0074531739556493665  0.47972968778274994  1.0000
  N   N10       1.0  0.8349268305830607  0.0033322669561008933  0.5016444529389723  1.0000
  N   N11       1.0  0.64017357674655  0.0041381593736449515  0.23307265160564083  1.0000
  N   N12       1.0  0.4978764454044967  0.6344383420896578  0.9931036377144461  1.0000
  N   N13       1.0  0.8760001364609645  0.5013851652731268  0.7328623110687242  1.0000
  N   N14       1.0  0.6530374070680309  0.4949153914281563  0.9950793038829199  1.0000
  N   N15       1.0  0.35838679917659055  0.9870716305460299  0.22930413783378906  1.0000
  N   N16       1.0  0.4962385643114047  0.3734233186744485  0.9782901990302044  1.0000
  O   O1        1.0  0.11915650563888126  0.25183796059663477  0.21960712573162278  1.0000
  O   O2        1.0  0.11828104402439767  0.766613285203889  0.9990557859356047  1.0000
  O   O3        1.0  0.1196412668078006  0.7373223882665296  0.24887231731971418  1.0000
  O   O4        1.0  0.1203858834924328  0.23081078630776422  0.9603210880252246  1.0000
  O   O5        1.0  0.16070555692941596  0.6890515958913357  0.42475988987301977  1.0000
  O   O6        1.0  0.16303370307553564  0.16413162016145313  0.8202669127216238  1.0000
  O   O7        1.0  0.16461146179746872  0.3110949221135448  0.37329593071074485  1.0000
  O   O8        1.0  0.16425021715260643  0.8161509006680047  0.8271637847327992  1.0000
  O   O9        1.0  0.18568410533332133  0.8370526475526122  0.1500495846502254  1.0000
  O   O10       1.0  0.19284808755849941  0.16341262102259377  0.13090151329585015  1.0000
  O   O11       1.0  0.17799441172831743  0.6634644259151339  0.08709073079456958  1.0000
  O   O12       1.0  0.1771833766428058  0.33557841007002875  0.05716083641051463  1.0000
  O   O13       1.0  0.24025669147457407  0.24607891669929416  0.9441868624064625  1.0000
  O   O14       1.0  0.24683268922296173  0.11861031433086998  0.974099623279885  1.0000
  O   O15       1.0  0.23982120247284228  0.884970197330416  0.9841146923622529  1.0000
  O   O16       1.0  0.23559924074046154  0.3847895242848794  0.22000296890830384  1.0000
  O   O17       1.0  0.24829862833349076  0.2642096828974413  0.20729661345560169  1.0000
  O   O18       1.0  0.225999139437245  0.6154601313857166  0.26109545266905315  1.0000
  O   O19       1.0  0.242736316296945  0.737121719714652  0.24432020033874977  1.0000
  O   O20       1.0  0.26357109748384555  0.7427976662699024  0.49678625429377066  1.0000
  O   O21       1.0  0.2478025471649699  0.7595562996412653  0.9905729955899434  1.0000
  O   O22       1.0  0.26123725289911925  0.7555195706277376  0.7488398544629123  1.0000
  O   O23       1.0  0.25154942202756236  0.22939168673743973  0.6940782770684732  1.0000
  O   O24       1.0  0.2636557719345608  0.8808501460580552  0.7279858448279611  1.0000
  O   O25       1.0  0.26942001175132074  0.11250821067556198  0.7242108777345122  1.0000
  O   O26       1.0  0.2514072233005947  0.6164745328424066  0.497331037067295  1.0000
  O   O27       1.0  0.25024852832934835  0.3772594961411621  0.48341811808428864  1.0000
  O   O28       1.0  0.26571445313466646  0.2496955548782649  0.4445327692632805  1.0000
  O   O29       1.0  0.3221541926903267  0.15678377047895264  0.5537515527315737  1.0000
  O   O30       1.0  0.3293708765246328  0.8292132260980513  0.5910862368641452  1.0000
  O   O31       1.0  0.316279516186739  0.3337186333886835  0.6305754941559205  1.0000
  O   O32       1.0  0.31444117597637317  0.6570007727605319  0.6615880525641975  1.0000
  O   O33       1.0  0.33488083241310973  0.6707281411111814  0.34848543151431066  1.0000
  O   O34       1.0  0.3357937381583989  0.18374379965411244  0.8700616502092289  1.0000
  O   O35       1.0  0.339355670662224  0.33199134011610654  0.32288688202124116  1.0000
  O   O36       1.0  0.34148571108027664  0.8210983271143294  0.9076573184251949  1.0000
  O   O37       1.0  0.3838263379335126  0.2580450443540039  0.4527597851372393  1.0000
  O   O38       1.0  0.38641318617066617  0.7599911355437183  0.7505744562792532  1.0000
  O   O39       1.0  0.38881035466012714  0.7231503837332036  0.5005934976965306  1.0000
  O   O40       1.0  0.3852707912230805  0.23434251341792092  0.7006314660486369  1.0000
  O   O41       1.0  0.6178979848896471  0.7584471563862009  0.7357018152572986  1.0000
  O   O42       1.0  0.6164064860562273  0.27198109468468673  0.46442719170770513  1.0000
  O   O43       1.0  0.6132596842871986  0.2421120557403332  0.7211611370952471  1.0000
  O   O44       1.0  0.6166338929368427  0.7402907180706528  0.48406211146111  1.0000
  O   O45       1.0  0.6617261947245214  0.18761890695444883  0.8842594001033778  1.0000
  O   O46       1.0  0.6593118507518225  0.6781559974501502  0.33094922274870164  1.0000
  O   O47       1.0  0.6655168416474941  0.8150940343944887  0.8990888566458413  1.0000
  O   O48       1.0  0.6656234626838883  0.3355065966423492  0.3155808100486959  1.0000
  O   O49       1.0  0.6795036107682884  0.3420478427248239  0.6373982946080784  1.0000
  O   O50       1.0  0.6797731561853784  0.6663566457356548  0.6439962794578674  1.0000
  O   O51       1.0  0.6736311377012864  0.1665266762288355  0.5858111848820354  1.0000
  O   O52       1.0  0.6778024214250232  0.8364630290922879  0.5720740529435393  1.0000
  O   O53       1.0  0.745674263214857  0.7461855361618916  0.48022512379494525  1.0000
  O   O54       1.0  0.7390203154773954  0.6283025515017822  0.4899517918784559  1.0000
  O   O55       1.0  0.749467523872159  0.38721350836244106  0.48834825593720455  1.0000
  O   O56       1.0  0.7239150975829799  0.8883972827120336  0.7443633661036779  1.0000
  O   O57       1.0  0.7302767093886013  0.11506288976518823  0.7405584510189926  1.0000
  O   O58       1.0  0.7497823817124103  0.7658251924095165  0.7241085064394287  1.0000
  O   O59       1.0  0.7464062301019138  0.24510421789736203  0.7179553060122517  1.0000
  O   O60       1.0  0.7597237363587551  0.24582987903763773  0.9742145932801076  1.0000
  O   O61       1.0  0.7376255588576293  0.25758098452581896  0.4646612584938908  1.0000
  O   O62       1.0  0.7593307688845422  0.26649973342115907  0.2186977137956069  1.0000
  O   O63       1.0  0.7714990769874295  0.38662679241198766  0.2196710467939671  1.0000
  O   O64       1.0  0.7564479438803702  0.742637809628968  0.23044281439996156  1.0000
  O   O65       1.0  0.7626099755980236  0.6207738074982995  0.2161540854770423  1.0000
  O   O66       1.0  0.759818743399248  0.11485941163307287  0.9806108307448961  1.0000
  O   O67       1.0  0.7618780162114871  0.8930509631525472  0.9757039198050408  1.0000
  O   O68       1.0  0.7576261878572597  0.7661252393459064  0.9716322706614486  1.0000
  O   O69       1.0  0.8242073588481726  0.6670452361562795  0.06327114727849001  1.0000
  O   O70       1.0  0.8371028660588142  0.33957162453680606  0.07309172904167767  1.0000
  O   O71       1.0  0.8158321178138263  0.840014051561859  0.12423047552620119  1.0000
  O   O72       1.0  0.8088797681835747  0.16901215989471477  0.1392298769750721  1.0000
  O   O73       1.0  0.834701192410062  0.17102263223953473  0.8213106559988289  1.0000
  O   O74       1.0  0.8389532950434327  0.6756831404469685  0.3864766935828973  1.0000
  O   O75       1.0  0.8419099997548151  0.8366552563103836  0.827361266851103  1.0000
  O   O76       1.0  0.841861258442233  0.3210074391880725  0.38409344272371815  1.0000
  O   O77       1.0  0.8877509814251034  0.7737858791909599  0.9833376375477254  1.0000
  O   O78       1.0  0.8852621883407192  0.25092167122126746  0.23625926727359198  1.0000
  O   O79       1.0  0.8886836171004127  0.23469659881119337  0.965905906234925  1.0000
  O   O80       1.0  0.8856131651019491  0.7416508775114288  0.24302430894524335  1.0000
  O   O81       1.0  0.977455911683222  0.911021734497913  0.45262170132341945  1.0000
  O   O82       1.0  0.06048477499881787  0.8522827343285084  0.437045046765207  1.0000
  O   O83       1.0  0.46346471407947937  0.8645508079897324  0.307202164400385  1.0000
  O   O84       1.0  0.5609219402599249  0.8377786838735651  0.31629170473499724  1.0000
  O   O85       1.0  0.04803766801465551  0.11053608021971939  0.4275326896890179  1.0000
  O   O86       1.0  0.949312834434489  0.11533909480158605  0.41575476756086976  1.0000
  O   O87       1.0  0.44893198751432667  0.14133345687205023  0.28163891511972605  1.0000
  O   O88       1.0  0.5480811959946128  0.15866566297164292  0.2863869193211132  1.0000
  O   O89       1.0  0.9441131137170146  0.6469553964222468  0.801953767497656  1.0000
  O   O90       1.0  0.04454777238505486  0.6549298987407667  0.8107124412221254  1.0000
  O   O91       1.0  0.9648574432738862  0.34117631194019477  0.7955694630690434  1.0000
  O   O92       1.0  0.06799601583391174  0.3374459363994067  0.7742292346510753  1.0000
  O   O93       1.0  0.3518346562072841  0.5377137357531573  0.03503437281387695  1.0000
  O   O94       1.0  0.3427298137718296  0.43537131468779267  0.02554561033097775  1.0000
  O   O95       1.0  0.11949343465434818  0.5614023694983065  0.6956459345983254  1.0000
  O   O96       1.0  0.13180757444319155  0.4600636955130209  0.6847896412851578  1.0000
  O   O97       1.0  0.15873314507662922  0.058509517536751814  0.5314694837574714  1.0000
  O   O98       1.0  0.1401008769306499  0.9582437894440408  0.5355004969597316  1.0000
  O   O99       1.0  0.8348083725194207  0.05581808609707497  0.5495891525403562  1.0000
  O   O100      1.0  0.8417211458964934  0.9516716804778942  0.5539340666750546  1.0000
  O   O101      1.0  0.6406965866316405  0.053914632379440545  0.17608581137498378  1.0000
  O   O102      1.0  0.6300489756080822  0.9541956791835515  0.18853933476795037  1.0000
  O   O103      1.0  0.44853051784060394  0.6199273862582532  0.9471586955826818  1.0000
  O   O104      1.0  0.5464647649820561  0.628187619700593  0.9258040238315902  1.0000
  O   O105      1.0  0.8553989781788593  0.5397110152059347  0.6539268131317368  1.0000
  O   O106      1.0  0.9177037531685174  0.45908644370789864  0.7161338773343737  1.0000
  O   O107      1.0  0.6376512152917787  0.5424666172716799  0.049925300834043514  1.0000
  O   O108      1.0  0.6603098471692394  0.4431092775190783  0.046359668938163956  1.0000
  O   O109      1.0  0.360785129864593  0.03641133659098208  0.1687485001648033  1.0000
  O   O110      1.0  0.36558130817351214  0.9350261108619421  0.18493624896544109  1.0000
  O   O111      1.0  0.4478534838199658  0.37150893168106575  0.9126409474456129  1.0000
  O   O112      1.0  0.5464062165457138  0.3942421637792296  0.9336909190011915  1.0000
