data_image0
_chemical_formula_structural       Al16H80C128O80
_chemical_formula_sum              "Al16 H80 C128 O80"
_cell_length_a       21.63717
_cell_length_b       21.63649
_cell_length_c       10.288049999999998
_cell_angle_alpha    90.00093999999999
_cell_angle_beta     89.99906
_cell_angle_gamma    90.00852000000002

_space_group_name_H-M_alt    "P 1"
_space_group_IT_number       1

loop_
  _space_group_symop_operation_xyz
  'x, y, z'

loop_
  _atom_site_type_symbol
  _atom_site_label
  _atom_site_symmetry_multiplicity
  _atom_site_fract_x
  _atom_site_fract_y
  _atom_site_fract_z
  _atom_site_occupancy
  Al  Al1       1.0  0.6734004824164656  0.997496390918412  0.02849299916688674  1.0000
  Al  Al2       1.0  0.32204023448312286  0.9955859955606112  0.9841132537221353  1.0000
  Al  Al3       1.0  0.7469717081576814  0.9347991311583518  0.7772483504796325  1.0000
  Al  Al4       1.0  0.25411578894392844  0.9326376870479478  0.7249653561177507  1.0000
  Al  Al5       1.0  0.7506019704215362  0.07286784172431521  0.2627455009187814  1.0000
  Al  Al6       1.0  0.241100864788635  0.06782566966813962  0.23072361532445984  1.0000
  Al  Al7       1.0  0.17457007645274483  0.9973842887724753  0.49034137288967466  1.0000
  Al  Al8       1.0  0.8171661594024956  0.0011624213568536873  0.5155661637946412  1.0000
  Al  Al9       1.0  0.25469709791386497  0.5692741331445321  0.7264854099670428  1.0000
  Al  Al10      1.0  0.1801340993313918  0.5010282232077352  0.4819300374059544  1.0000
  Al  Al11      1.0  0.251210315713908  0.4256436700691436  0.23239402128133457  1.0000
  Al  Al12      1.0  0.7517355990773729  0.5699159732995163  0.7619078068350668  1.0000
  Al  Al13      1.0  0.6824368344540191  0.5017887253860226  0.0008230033876467033  1.0000
  Al  Al14      1.0  0.7496155247211946  0.43463080017101624  0.2524129558758813  1.0000
  Al  Al15      1.0  0.31729335487300014  0.5024056862495118  0.9882455334069581  1.0000
  Al  Al16      1.0  0.8213044806421266  0.5019829137297711  0.5027387057209036  1.0000
  H   H1        1.0  0.7232274373433122  0.5027018024953113  0.6017506370659239  1.0000
  H   H2        1.0  0.7272461561288567  0.5215277848552262  0.3795707885411643  1.0000
  H   H3        1.0  0.22767521510187852  0.01223935378748345  0.8739125298204828  1.0000
  H   H4        1.0  0.2816172700259695  0.49697729661941004  0.5528487061717899  1.0000
  H   H5        1.0  0.245541332333453  0.5332943872118916  0.32482735609754576  1.0000
  H   H6        1.0  0.7479084303379075  0.46597589328501127  0.8329134687628953  1.0000
  H   H7        1.0  0.7809248895746352  0.5083310165200311  0.09477287340773027  1.0000
  H   H8        1.0  0.23878249967949805  0.47308883905427945  0.8282222707211877  1.0000
  H   H9        1.0  0.715447632019538  0.008834896789283064  0.4367385132468453  1.0000
  H   H10       1.0  0.7575092759729589  0.9745741926272954  0.19909682598269285  1.0000
  H   H11       1.0  0.7815357542742793  0.004292597009659291  0.9325060932423391  1.0000
  H   H12       1.0  0.749272364801331  0.02628260898596268  0.7050785933147842  1.0000
  H   H13       1.0  0.2365275575158241  0.9714104757439593  0.12693615508783984  1.0000
  H   H14       1.0  0.26516730765090635  0.031844040447006984  0.6197206955366501  1.0000
  H   H15       1.0  0.2683206944140444  0.9927675139942792  0.3902034876463824  1.0000
  H   H16       1.0  0.21813071329533337  0.4945142056652362  0.08187547205026124  1.0000
  H   H17       1.0  0.6118411585350189  0.9010277641844731  0.5558370120225851  1.0000
  H   H18       1.0  0.4097270678671852  0.8910082795587067  0.519771267775633  1.0000
  H   H19       1.0  0.49423275396187527  0.987108170980207  0.8434038036688342  1.0000
  H   H20       1.0  0.5129122951624308  0.874783840824984  0.42838475524380976  1.0000
  H   H21       1.0  0.5910678288177261  0.10835442296376506  0.4715704153173484  1.0000
  H   H22       1.0  0.39241435784320594  0.11939327409154184  0.4501757234117651  1.0000
  H   H23       1.0  0.49281615172611737  0.010983407772955731  0.1772904088229419  1.0000
  H   H24       1.0  0.48232783893874037  0.13639562977210276  0.5645061660434153  1.0000
  H   H25       1.0  0.10412556992574241  0.9175054664910095  0.9684144286508394  1.0000
  H   H26       1.0  0.9028633726443785  0.9199046794096929  0.9925653513297596  1.0000
  H   H27       1.0  0.9969516656925798  0.9809881241281754  0.6496331590338938  1.0000
  H   H28       1.0  0.007671868874599808  0.9001906485994229  0.10234064961614227  1.0000
  H   H29       1.0  0.08877466678895113  0.0958000106227688  0.004437753511334693  1.0000
  H   H30       1.0  0.8902339057058171  0.0807046285906942  0.025125085907393947  1.0000
  H   H31       1.0  0.0030179960732490633  0.013616306500703775  0.346501647149787  1.0000
  H   H32       1.0  0.9909878599448384  0.11784221775655192  0.9158946809682937  1.0000
  H   H33       1.0  0.1651306329762128  0.8531860057679959  0.26912422963974025  1.0000
  H   H34       1.0  0.17032010978135045  0.6488530765794928  0.24992449790698637  1.0000
  H   H35       1.0  0.22979442344147608  0.7486049832293831  0.596015310155977  1.0000
  H   H36       1.0  0.15816918767180513  0.7579387516330658  0.13859199074496356  1.0000
  H   H37       1.0  0.15618844414442337  0.15817010508937657  0.7080355268452576  1.0000
  H   H38       1.0  0.16603715385683554  0.3522569728327236  0.7190370295625325  1.0000
  H   H39       1.0  0.2302407427730173  0.2434976354001002  0.3806262713588919  1.0000
  H   H40       1.0  0.1432000802176527  0.2533210928927207  0.8215882088709471  1.0000
  H   H41       1.0  0.6447634012228965  0.8480290266926951  0.2221054884662252  1.0000
  H   H42       1.0  0.6573834600876227  0.6462949845872397  0.22882255924432185  1.0000
  H   H43       1.0  0.7231776077748542  0.7470188328963656  0.899310325327923  1.0000
  H   H44       1.0  0.6180635924494374  0.7425891083913017  0.33040791606911  1.0000
  H   H45       1.0  0.6476084208985635  0.1450958324323737  0.8278703925712007  1.0000
  H   H46       1.0  0.6579073033583812  0.33948193540691984  0.7781354340379799  1.0000
  H   H47       1.0  0.7404866499377067  0.26180277920098305  0.1117050539518451  1.0000
  H   H48       1.0  0.6539374538181133  0.2432112079763116  0.6655013255031407  1.0000
  H   H49       1.0  0.32492838631734217  0.8551961739989399  0.20894672465418762  1.0000
  H   H50       1.0  0.33941903698429216  0.6552458235376026  0.21617335652514552  1.0000
  H   H51       1.0  0.284971540964989  0.7475547556772818  0.863743957542145  1.0000
  H   H52       1.0  0.3533664681467303  0.7619857290310448  0.31786872447938036  1.0000
  H   H53       1.0  0.3306179941740342  0.14246754733399702  0.7805040597743009  1.0000
  H   H54       1.0  0.3414530689865199  0.3451131295395167  0.7734791084939854  1.0000
  H   H55       1.0  0.2595862338593883  0.2519971862156108  0.09427083949446295  1.0000
  H   H56       1.0  0.36141990469722374  0.24679029009544273  0.6652265212398681  1.0000
  H   H57       1.0  0.8213233705082873  0.853394385478221  0.27810415392324034  1.0000
  H   H58       1.0  0.841287764066857  0.6514649416727527  0.2804548199878987  1.0000
  H   H59       1.0  0.7814540451735217  0.7549124026208128  0.6278654391977472  1.0000
  H   H60       1.0  0.8545140126785256  0.7499009390886083  0.16828584235748623  1.0000
  H   H61       1.0  0.8415435838551846  0.1579017828146884  0.7301842294722202  1.0000
  H   H62       1.0  0.8539895960674126  0.35536617725230607  0.7154792805226414  1.0000
  H   H63       1.0  0.7760327203163736  0.25921482839650534  0.3913830707552578  1.0000
  H   H64       1.0  0.8720223349072749  0.2572925912253887  0.8354717543473434  1.0000
  H   H65       1.0  0.09538919084514735  0.41852415141734545  0.013905898594826185  1.0000
  H   H66       1.0  0.8942178757853345  0.4254812733142649  0.0204043380481718  1.0000
  H   H67       1.0  0.003562566482695484  0.4828111538521199  0.34514192689145184  1.0000
  H   H68       1.0  0.9891167568440754  0.4036758582087082  0.8909774682730806  1.0000
  H   H69       1.0  0.0984876482833458  0.6073906925568267  0.9526472502211413  1.0000
  H   H70       1.0  0.9032938048521434  0.5971304372677906  0.9738102111377964  1.0000
  H   H71       1.0  0.994781330948794  0.5205700668228171  0.6381816973835611  1.0000
  H   H72       1.0  0.0010563481814580685  0.6219264525842678  0.0697628967776356  1.0000
  H   H73       1.0  0.6090420804387907  0.4092713790685464  0.4630945982263091  1.0000
  H   H74       1.0  0.4064174020617084  0.407519102887494  0.4683940884129501  1.0000
  H   H75       1.0  0.5096824877205883  0.47871417631001184  0.14004411918563217  1.0000
  H   H76       1.0  0.502001561894909  0.3969369789876828  0.5864576233225671  1.0000
  H   H77       1.0  0.6065667775324494  0.6079834571242893  0.5400800911246864  1.0000
  H   H78       1.0  0.403878802239595  0.600136886861111  0.5418153402734371  1.0000
  H   H79       1.0  0.5109169861065076  0.5005651937203496  0.8314599503600856  1.0000
  H   H80       1.0  0.505169730442021  0.6433272222640727  0.4417316353655971  1.0000
  C   C1        1.0  0.5660518576454108  0.9138747279689063  0.5896739636405968  1.0000
  C   C2        1.0  0.5590020160164322  0.9436850265545114  0.7114440221392576  1.0000
  C   C3        1.0  0.6140465062295342  0.9523775147930483  0.793351082294173  1.0000
  C   C4        1.0  0.4998982836239224  0.9608412213292168  0.751752811473641  1.0000
  C   C5        1.0  0.5113378837105881  0.8998946944523346  0.5184964285200374  1.0000
  C   C6        1.0  0.4518901692067842  0.909515240996125  0.562207714927182  1.0000
  C   C7        1.0  0.4495312371974741  0.9422048742507173  0.6825857710537846  1.0000
  C   C8        1.0  0.3891153237220503  0.9565715610638541  0.7497344999368981  1.0000
  C   C9        1.0  0.5476009305015612  0.09440613231700959  0.4277941195060718  1.0000
  C   C10       1.0  0.5526316679735791  0.058352365430046835  0.31362072801632257  1.0000
  C   C11       1.0  0.6105014261910536  0.04615810650136787  0.24779740773869505  1.0000
  C   C12       1.0  0.4927706429035988  0.04054423006365244  0.2579296699291056  1.0000
  C   C13       1.0  0.48918624201263267  0.11413239780327768  0.4763312912863787  1.0000
  C   C14       1.0  0.43611920502515494  0.10323347398355923  0.4057961286272458  1.0000
  C   C15       1.0  0.43590357582250566  0.06544652536690618  0.2935263213935286  1.0000
  C   C16       1.0  0.37726866650879487  0.04794024888474112  0.21719465793822457  1.0000
  C   C17       1.0  0.058726154711095865  0.9278245228053873  0.9304098592615747  1.0000
  C   C18       1.0  0.05779510239250602  0.9492552634966062  0.8039091336284134  1.0000
  C   C19       1.0  0.11827104878870237  0.9582181321496374  0.729163697884327  1.0000
  C   C20       1.0  0.9999208934577867  0.9600203592630961  0.7452128850523944  1.0000
  C   C21       1.0  0.0033498967451888184  0.9167335782580646  0.0024752011095954263  1.0000
  C   C22       1.0  0.9461240820179032  0.9296882588194505  0.9462024603904305  1.0000
  C   C23       1.0  0.9443478939871083  0.9511668103657034  0.812881910784905  1.0000
  C   C24       1.0  0.8842286841530239  0.9589079150083245  0.7437390440422825  1.0000
  C   C25       1.0  0.050921577220040336  0.08261829855139025  0.06719928365298146  1.0000
  C   C26       1.0  0.05456286494716709  0.051361280059972196  0.18428429882341468  1.0000
  C   C27       1.0  0.11205330013529122  0.04088216819354715  0.25067024272763405  1.0000
  C   C28       1.0  0.9982523688555914  0.03583423915630016  0.2517076375695013  1.0000
  C   C29       1.0  0.9907903840626089  0.08998479018744755  0.014348741504923445  1.0000
  C   C30       1.0  0.9365132194283886  0.07384217351971836  0.0721803500371642  1.0000
  C   C31       1.0  0.9413189637551098  0.04659795359763714  0.19640654745493993  1.0000
  C   C32       1.0  0.8831559354435915  0.039687573225941714  0.2782725784546594  1.0000
  C   C33       1.0  0.17812969144746596  0.8067512389008726  0.31322273228330205  1.0000
  C   C34       1.0  0.1984397693615011  0.8051738898425864  0.44318859854171244  1.0000
  C   C35       1.0  0.20359179631715588  0.8632719271399933  0.5180818494694742  1.0000
  C   C36       1.0  0.21409519980237304  0.7494424484491511  0.4982896147841062  1.0000
  C   C37       1.0  0.17126727450940052  0.7524720842676118  0.238007491279589  1.0000
  C   C38       1.0  0.17961088015225302  0.6936541683552256  0.2969937141462466  1.0000
  C   C39       1.0  0.20189558352829354  0.695445932020691  0.42668078704724016  1.0000
  C   C40       1.0  0.21498619995341195  0.6338820538489872  0.49310763957846987  1.0000
  C   C41       1.0  0.1674206956542768  0.1973222930452555  0.6544322259137484  1.0000
  C   C42       1.0  0.19471563603735606  0.19235390868179664  0.5335670279088163  1.0000
  C   C43       1.0  0.19931232861193438  0.13282944077638228  0.46275500909125045  1.0000
  C   C44       1.0  0.20919922084602488  0.24982938920874267  0.4710286255708464  1.0000
  C   C45       1.0  0.15915024707913986  0.25335486774475197  0.7226275622689191  1.0000
  C   C46       1.0  0.17429625990921696  0.30958658554402396  0.6656619779105887  1.0000
  C   C47       1.0  0.19628285569995818  0.30457714426646654  0.5355677773225088  1.0000
  C   C48       1.0  0.205836881047334  0.3630000587283091  0.46197610055152166  1.0000
  C   C49       1.0  0.6598715111355669  0.8025410374159563  0.18397937612175166  1.0000
  C   C50       1.0  0.6901467231624077  0.8037521400779459  0.05782715287737785  1.0000
  C   C51       1.0  0.7077841162113937  0.8638697825873176  0.9971792917764697  1.0000
  C   C52       1.0  0.7068827705508252  0.7486954077581208  0.9991246594608596  1.0000
  C   C53       1.0  0.6452738817508501  0.7455098036909819  0.2390598160644524  1.0000
  C   C54       1.0  0.6664346215764987  0.6898712935806487  0.18179379187536376  1.0000
  C   C55       1.0  0.6978296895981001  0.6928800417648473  0.0659456573580596  1.0000
  C   C56       1.0  0.7083706281373929  0.6359790967141854  0.9933782381258243  1.0000
  C   C57       1.0  0.668495223605651  0.19070454717099256  0.8545319309651449  1.0000
  C   C58       1.0  0.6956744710157912  0.19378275138480353  0.9798800562509915  1.0000
  C   C59       1.0  0.7041400186881689  0.13457899160036907  0.0488486516040696  1.0000
  C   C60       1.0  0.7177470470120377  0.2512294475455623  0.023994950458681216  1.0000
  C   C61       1.0  0.6628571046679238  0.24405893203791043  0.7731856311099512  1.0000
  C   C62       1.0  0.6734106955673806  0.30120784353259356  0.83557181898547  1.0000
  C   C63       1.0  0.7051677043016186  0.30420371069405466  0.9565659325769666  1.0000
  C   C64       1.0  0.7149450756865208  0.36712593639080005  0.02206448064123817  1.0000
  C   C65       1.0  0.32501227453592996  0.808335341986018  0.16070098613876643  1.0000
  C   C66       1.0  0.3032609447014381  0.8040278764403292  0.03043337465158718  1.0000
  C   C67       1.0  0.3060972442571027  0.8646370260266251  0.9551959246547858  1.0000
  C   C68       1.0  0.2945209183433055  0.7483560813129428  0.9648564628546145  1.0000
  C   C69       1.0  0.33432362686824146  0.755022055152367  0.22786856504691405  1.0000
  C   C70       1.0  0.32899108876843713  0.6973879791002326  0.16590913540071792  1.0000
  C   C71       1.0  0.30948174241582815  0.6955853127011482  0.03938104889741351  1.0000
  C   C72       1.0  0.3043947039046012  0.6349017663665226  0.968508626287929  1.0000
  C   C73       1.0  0.32835973319806006  0.1909839251470854  0.8199193182644064  1.0000
  C   C74       1.0  0.3003176472369125  0.19321172162653882  0.9422558767316296  1.0000
  C   C75       1.0  0.28944085095290434  0.1349574305097922  0.01471523369742005  1.0000
  C   C76       1.0  0.2851960786041244  0.25056480827932154  0.9993407759486176  1.0000
  C   C77       1.0  0.33827164435248475  0.24420992097248678  0.7583157636383535  1.0000
  C   C78       1.0  0.3333384890527226  0.30171643626107014  0.820114289128714  1.0000
  C   C79       1.0  0.3026685880751041  0.3059070157907015  0.9389273441127935  1.0000
  C   C80       1.0  0.2935237985700997  0.36638127906376544  0.9966995222603761  1.0000
  C   C81       1.0  0.8179578946872246  0.808931568096678  0.3274458717547646  1.0000
  C   C82       1.0  0.8001565934468863  0.8093436771700773  0.4600219032055319  1.0000
  C   C83       1.0  0.7907566045297675  0.8698362450060829  0.5325774205485546  1.0000
  C   C84       1.0  0.7962022550127307  0.7522808298320864  0.5248343283181088  1.0000
  C   C85       1.0  0.8337198931449388  0.7531769675912561  0.2662177818670285  1.0000
  C   C86       1.0  0.8292230738883998  0.6971864845935205  0.3279493393702402  1.0000
  C   C87       1.0  0.8055111443096936  0.6959904148790269  0.45665080664113594  1.0000
  C   C88       1.0  0.7921918324504179  0.6330164041359558  0.5219580816039148  1.0000
  C   C89       1.0  0.8327651066143843  0.1988604612131681  0.6774813955876726  1.0000
  C   C90       1.0  0.8065527882796092  0.19764000419748864  0.5555595852992733  1.0000
  C   C91       1.0  0.7944426300665806  0.13883040967366297  0.48801016240698314  1.0000
  C   C92       1.0  0.7981931503723184  0.2554388201503507  0.48972441535139405  1.0000
  C   C93       1.0  0.850103164684941  0.2545567838891118  0.7405602570020949  1.0000
  C   C94       1.0  0.8435441201172587  0.3098944306178613  0.6741164352687282  1.0000
  C   C95       1.0  0.8153233680739831  0.31011554846618955  0.548578782326958  1.0000
  C   C96       1.0  0.8026658244969194  0.3683001861060228  0.48195539789701636  1.0000
  C   C97       1.0  0.05191897893111557  0.4351002416151397  0.055182096719279525  1.0000
  C   C98       1.0  0.05526279476877312  0.4568054195046276  0.18038331758685378  1.0000
  C   C99       1.0  0.11712681631580064  0.4600876495771037  0.25064428737165584  1.0000
  C   C100      1.0  0.000727141926629038  0.4711500875115874  0.2421417548194675  1.0000
  C   C101      1.0  0.9940292242443536  0.4241417873902644  0.9922375124516801  1.0000
  C   C102      1.0  0.9404639061824082  0.4363301066947391  0.06237094592004195  1.0000
  C   C103      1.0  0.9421648242929974  0.4555758978666289  0.1931093667443943  1.0000
  C   C104      1.0  0.8846810292654198  0.467250720294462  0.264843201649805  1.0000
  C   C105      1.0  0.05834785282079085  0.5887239451625411  0.9063164363032193  1.0000
  C   C106      1.0  0.0582947458480365  0.5610796492818615  0.7816153024299136  1.0000
  C   C107      1.0  0.12014953741357177  0.5501816281807035  0.7163044368936043  1.0000
  C   C108      1.0  0.999796750060771  0.5431861973526207  0.731370159750872  1.0000
  C   C109      1.0  0.004489420769395806  0.6015539666110926  0.9746832939865792  1.0000
  C   C110      1.0  0.9463768467443918  0.5868019448209009  0.923555472859975  1.0000
  C   C111      1.0  0.9448681994971031  0.5585896397444139  0.7990015933254807  1.0000
  C   C112      1.0  0.8877358685107357  0.547824453770558  0.7327774380984594  1.0000
  C   C113      1.0  0.5628031053075301  0.4201112174633289  0.4270818931850516  1.0000
  C   C114      1.0  0.5592880281193554  0.44641156935014675  0.3027900380381453  1.0000
  C   C115      1.0  0.6192544557755769  0.4537290879286491  0.22413352098994105  1.0000
  C   C116      1.0  0.5049401403066908  0.46215215049877517  0.24254441810367733  1.0000
  C   C117      1.0  0.5038515730241213  0.41008886615352536  0.484965350221153  1.0000
  C   C118      1.0  0.44874919960636384  0.42104046693848635  0.42007055089769757  1.0000
  C   C119      1.0  0.44740426170093434  0.4438700210999252  0.2938265522439649  1.0000
  C   C120      1.0  0.3863360090712401  0.4531918024842141  0.21766867974034568  1.0000
  C   C121      1.0  0.562677134098063  0.5905658728445766  0.5793430117081505  1.0000
  C   C122      1.0  0.5615614756674624  0.5533527953256511  0.6921014314584625  1.0000
  C   C123      1.0  0.6194298808790745  0.5434213813701477  0.7689769734914859  1.0000
  C   C124      1.0  0.5074314029314646  0.530739549530423  0.7465503814684988  1.0000
  C   C125      1.0  0.5063545965703242  0.611004274998771  0.5276661934439432  1.0000
  C   C126      1.0  0.4501461441621542  0.5871937597768697  0.578099472844766  1.0000
  C   C127      1.0  0.4513087098235946  0.5488764437694763  0.6910667718288083  1.0000
  C   C128      1.0  0.3912175019835993  0.5383687665986683  0.7609907486945505  1.0000
  O   O1        1.0  0.7390813298780509  0.9972585543182285  0.8923791615000654  1.0000
  O   O2        1.0  0.6097236735173224  0.9836966948949698  0.9015486124674875  1.0000
  O   O3        1.0  0.6640998637794713  0.9298638267616427  0.7481360113987956  1.0000
  O   O4        1.0  0.38803604756968424  0.9873774034537665  0.852029327458462  1.0000
  O   O5        1.0  0.3426021159346065  0.9380941671969318  0.684357033830006  1.0000
  O   O6        1.0  0.7447412931991648  0.0063305336922630795  0.13609380984509267  1.0000
  O   O7        1.0  0.6107707846187198  0.011507915868356118  0.15047172694695438  1.0000
  O   O8        1.0  0.6727086048578163  0.08900823315167392  0.006361537199598866  1.0000
  O   O9        1.0  0.6806803382336593  0.910853046981601  0.05116445100302389  1.0000
  O   O10       1.0  0.6571228127932348  0.07456194022968897  0.2894990071783809  1.0000
  O   O11       1.0  0.38225919757583  0.013016301473944574  0.11746487918752606  1.0000
  O   O12       1.0  0.32654004488352567  0.06559013985226989  0.27156245457126277  1.0000
  O   O13       1.0  0.23887813914424177  0.9968495657790445  0.610049932853073  1.0000
  O   O14       1.0  0.1158850580798784  0.9954141959368663  0.632419394516064  1.0000
  O   O15       1.0  0.1665444397928947  0.9318754092759691  0.7796862770066955  1.0000
  O   O16       1.0  0.8835220127533849  0.9826671948472826  0.6293466849152642  1.0000
  O   O17       1.0  0.8391677325127354  0.941206980346969  0.8131176308679774  1.0000
  O   O18       1.0  0.2305123236747332  0.0005244470937631085  0.3479118735779152  1.0000
  O   O19       1.0  0.11379989628382788  0.007511346711784858  0.35224961882721023  1.0000
  O   O20       1.0  0.16982320999800482  0.085192558070996  0.5041453969795867  1.0000
  O   O21       1.0  0.1739000988639656  0.9099840777163947  0.4766485593790569  1.0000
  O   O22       1.0  0.15689725531575482  0.06547355319819358  0.19165123716648233  1.0000
  O   O23       1.0  0.8819032645743574  0.0056079010743412434  0.3778357386527205  1.0000
  O   O24       1.0  0.8360201174155865  0.07074957241290938  0.23772638455860903  1.0000
  O   O25       1.0  0.24409845388976684  0.8659878362548863  0.6118813450259406  1.0000
  O   O26       1.0  0.24793931962163027  0.6305738255023144  0.5965153339701482  1.0000
  O   O27       1.0  0.18865957093902697  0.5876065711447359  0.4501019757141739  1.0000
  O   O28       1.0  0.26110847574930685  0.9851652581928777  0.8566613840690759  1.0000
  O   O29       1.0  0.27729578979421193  0.8667014677034273  0.8505584053688462  1.0000
  O   O30       1.0  0.23214423259888725  0.1306855263147336  0.36306826376283496  1.0000
  O   O31       1.0  0.24250038626402415  0.36271765472936074  0.3607017064456998  1.0000
  O   O32       1.0  0.18083784352681703  0.411245888837818  0.5088419964336138  1.0000
  O   O33       1.0  0.2551804604150881  0.00939143654947562  0.0994938360792833  1.0000
  O   O34       1.0  0.25691202339371744  0.13308341579387778  0.11728468468997803  1.0000
  O   O35       1.0  0.7436547086178454  0.8691844707431868  0.9040056602080022  1.0000
  O   O36       1.0  0.7452826389719005  0.6369370645395156  0.8995242249493859  1.0000
  O   O37       1.0  0.6741642409027271  0.5903748527837067  0.03204092613164908  1.0000
  O   O38       1.0  0.7536512213410884  0.9913350005430708  0.6433853346145628  1.0000
  O   O39       1.0  0.7620313529740576  0.8657571893720966  0.6420486420436966  1.0000
  O   O40       1.0  0.7437074810686449  0.1356456669176207  0.14193604331170445  1.0000
  O   O41       1.0  0.7518475717713246  0.3727208974461926  0.11673995366694565  1.0000
  O   O42       1.0  0.684599504337055  0.41140697282725064  0.9769702599331221  1.0000
  O   O43       1.0  0.7555149693110359  0.011968060926980804  0.38627088234111184  1.0000
  O   O44       1.0  0.7581241646313939  0.1349235325582453  0.3890142914427001  1.0000
  O   O45       1.0  0.32960759041523185  0.9096411608757617  0.016255329245581665  1.0000
  O   O46       1.0  0.2786303837399799  0.6315316936085048  0.857673467019956  1.0000
  O   O47       1.0  0.3276210164675073  0.5902685757274373  0.030367324233851762  1.0000
  O   O48       1.0  0.31813688728752615  0.08775820595609612  0.9686123291276593  1.0000
  O   O49       1.0  0.2537232417045873  0.36538133060523453  0.09047330157323256  1.0000
  O   O50       1.0  0.3207722326370298  0.4146221419319841  0.9550660730307794  1.0000
  O   O51       1.0  0.8128068298455022  0.915301346213426  0.4744880644353133  1.0000
  O   O52       1.0  0.7580822333663088  0.6340826820907194  0.6254297686861592  1.0000
  O   O53       1.0  0.8193261475334476  0.5877792129980736  0.47690719245342145  1.0000
  O   O54       1.0  0.8214291230838193  0.09261415300124495  0.5443365060927109  1.0000
  O   O55       1.0  0.7648425113121953  0.371076275115041  0.389703494936259  1.0000
  O   O56       1.0  0.835336101853892  0.41749864880486504  0.5263637736458662  1.0000
  O   O57       1.0  0.24267326822731056  0.4902573845675249  0.3584425232179496  1.0000
  O   O58       1.0  0.11804057301262989  0.48903068036922215  0.3567666322566265  1.0000
  O   O59       1.0  0.1646621621356841  0.4314923387709972  0.1976140882428777  1.0000
  O   O60       1.0  0.8827342724194912  0.5010797690692598  0.37042071442358765  1.0000
  O   O61       1.0  0.838150661223483  0.439324427633589  0.2214967744726418  1.0000
  O   O62       1.0  0.24611470587522913  0.5038727464651367  0.6061190091103925  1.0000
  O   O63       1.0  0.12000819089885623  0.5213697790972317  0.6080589549704312  1.0000
  O   O64       1.0  0.16917810006731626  0.5696766697317494  0.7665344882774013  1.0000
  O   O65       1.0  0.8876191776200105  0.5147731361292436  0.6280988634132834  1.0000
  O   O66       1.0  0.8423633714957482  0.5762515682302947  0.7896679576971699  1.0000
  O   O67       1.0  0.7414259904017522  0.4950874415410086  0.13041824061518864  1.0000
  O   O68       1.0  0.6224591010414406  0.4899823691972659  0.12813399238483164  1.0000
  O   O69       1.0  0.6641770976236201  0.42282436773119303  0.26577739423271296  1.0000
  O   O70       1.0  0.38663613816708886  0.49145541346300314  0.12023630137226206  1.0000
  O   O71       1.0  0.3389874950978631  0.425122952583088  0.2623857009565926  1.0000
  O   O72       1.0  0.7425190397998965  0.5043842844842991  0.8786164620538044  1.0000
  O   O73       1.0  0.6170915031731309  0.508424652555044  0.8676091759276214  1.0000
  O   O74       1.0  0.6686546712767415  0.565904050884614  0.718484125950912  1.0000
  O   O75       1.0  0.3919704868541524  0.5108796413172804  0.871870908715837  1.0000
  O   O76       1.0  0.34225925693536696  0.5604084624110629  0.7028778682010752  1.0000
  O   O77       1.0  0.7533084816530503  0.4854966511911063  0.39572023474765755  1.0000
  O   O78       1.0  0.7608138676046516  0.5066572668455437  0.6456819087959051  1.0000
  O   O79       1.0  0.25974624850737527  0.4915690917758096  0.11804179220812736  1.0000
  O   O80       1.0  0.25792562048121603  0.5108819045674209  0.865167895023392  1.0000
