data_image0
_chemical_formula_structural       Al16H80C128O80
_chemical_formula_sum              "Al16 H80 C128 O80"
_cell_length_a       21.63717
_cell_length_b       21.63649
_cell_length_c       10.288049999999998
_cell_angle_alpha    90.00093999999999
_cell_angle_beta     89.99906
_cell_angle_gamma    90.00852000000002

_space_group_name_H-M_alt    "P 1"
_space_group_IT_number       1

loop_
  _space_group_symop_operation_xyz
  'x, y, z'

loop_
  _atom_site_type_symbol
  _atom_site_label
  _atom_site_symmetry_multiplicity
  _atom_site_fract_x
  _atom_site_fract_y
  _atom_site_fract_z
  _atom_site_occupancy
  Al  Al1       1.0  0.6827302372204723  0.9985298868850717  0.00884931838633184  1.0000
  Al  Al2       1.0  0.3158513984652667  0.0034274447736259983  0.0007379279846076871  1.0000
  Al  Al3       1.0  0.7538822065864649  0.922539931327907  0.7647359871032255  1.0000
  Al  Al4       1.0  0.250842417628419  0.9349986267253824  0.7462803711166102  1.0000
  Al  Al5       1.0  0.7467065545646374  0.06896206993640458  0.2635673874767079  1.0000
  Al  Al6       1.0  0.24075746545107315  0.0694559671602181  0.2368564927907416  1.0000
  Al  Al7       1.0  0.17978933487288692  0.006463577589763725  0.5053301501644255  1.0000
  Al  Al8       1.0  0.8196032505029416  0.9984761548885455  0.5045035999433157  1.0000
  Al  Al9       1.0  0.2544829248878248  0.5754894382450719  0.7292417709885806  1.0000
  Al  Al10      1.0  0.17858318685175814  0.5055327990897316  0.48228525729708865  1.0000
  Al  Al11      1.0  0.25170512098561165  0.43845171267582705  0.23152128252108198  1.0000
  Al  Al12      1.0  0.7540407773916287  0.5710823102622431  0.7517025939882925  1.0000
  Al  Al13      1.0  0.684171155441828  0.4996200789973591  0.9989541954011795  1.0000
  Al  Al14      1.0  0.7492782609258043  0.4265848216050483  0.24759635117301382  1.0000
  Al  Al15      1.0  0.3231227726556762  0.5042194990604915  0.9829262717378636  1.0000
  Al  Al16      1.0  0.8185638392474817  0.49787589355835893  0.49331780768618533  1.0000
  H   H1        1.0  0.7560978425057697  0.46290217942984796  0.6632163929837297  1.0000
  H   H2        1.0  0.7132998480037412  0.47697860039804457  0.4199629143679084  1.0000
  H   H3        1.0  0.21342652008519195  0.002755956140983108  0.8992969972433942  1.0000
  H   H4        1.0  0.2781942650682062  0.48918400639159026  0.5664524085291526  1.0000
  H   H5        1.0  0.26648909581687136  0.534900107323654  0.3192974072719364  1.0000
  H   H6        1.0  0.7857814615057741  0.49808485916859657  0.9013032423535515  1.0000
  H   H7        1.0  0.7468171227817432  0.5260865372461296  0.19332837909373224  1.0000
  H   H8        1.0  0.2572677607814056  0.46878115619440797  0.8137279195039862  1.0000
  H   H9        1.0  0.7156479010607565  0.0030688003188923396  0.4433914397021424  1.0000
  H   H10       1.0  0.7419071607128679  0.9646263152995561  0.19829129237795431  1.0000
  H   H11       1.0  0.7869692705338396  0.9916678021675225  0.9497829241333082  1.0000
  H   H12       1.0  0.7348663576947113  0.020669476026043996  0.6636366300550078  1.0000
  H   H13       1.0  0.23371128992172638  0.9653082320873311  0.1186854972836064  1.0000
  H   H14       1.0  0.2724385452749244  0.02624279098080969  0.6490121706054046  1.0000
  H   H15       1.0  0.2790670952810271  0.005334914003422453  0.39690890704253284  1.0000
  H   H16       1.0  0.2209490960259738  0.5049992492941628  0.045724592136177265  1.0000
  H   H17       1.0  0.6031348331757084  0.9263279116989231  0.5432905741616944  1.0000
  H   H18       1.0  0.4023976302028962  0.9335667068055293  0.538231393849195  1.0000
  H   H19       1.0  0.5020925802749483  0.9863203262839332  0.8750241194806301  1.0000
  H   H20       1.0  0.5007706412202138  0.9255655063078079  0.4132465667589255  1.0000
  H   H21       1.0  0.5960355256438583  0.08702499286977473  0.471239581971776  1.0000
  H   H22       1.0  0.4023167230448339  0.09630670671428536  0.48597373276233347  1.0000
  H   H23       1.0  0.4906377725457793  0.03174596343566111  0.13322235704228258  1.0000
  H   H24       1.0  0.49513924939841036  0.111934836809286  0.5845552696204305  1.0000
  H   H25       1.0  0.10384062523821765  0.9213414528054376  0.964258357285371  1.0000
  H   H26       1.0  0.9042167306767315  0.8963498926775411  0.9600819740046168  1.0000
  H   H27       1.0  0.0023936640723778435  0.997852283166182  0.6556437081677571  1.0000
  H   H28       1.0  0.0037166250412097313  0.8796996660715857  0.07743183598586584  1.0000
  H   H29       1.0  0.09081920326689223  0.0809351127795493  0.02256995641180689  1.0000
  H   H30       1.0  0.8954185598846484  0.08664320105701127  0.04451551947387999  1.0000
  H   H31       1.0  0.9974854715877423  0.028852800390948594  0.3674427020686472  1.0000
  H   H32       1.0  0.9933312671739475  0.09940205836753747  0.9166661381445455  1.0000
  H   H33       1.0  0.1524867445786335  0.8540070268274008  0.2898264783707747  1.0000
  H   H34       1.0  0.1433540573176021  0.6550927668971055  0.2993176423937215  1.0000
  H   H35       1.0  0.2396334484858715  0.7488067420165844  0.5834054142053436  1.0000
  H   H36       1.0  0.12417281861920626  0.7649546456322253  0.16921906877090606  1.0000
  H   H37       1.0  0.1629263943264146  0.16157331404751435  0.7134619769514511  1.0000
  H   H38       1.0  0.15057726640622923  0.36067583942834036  0.6727047761103933  1.0000
  H   H39       1.0  0.2306807912479403  0.2568227219478836  0.36841172146519785  1.0000
  H   H40       1.0  0.14521313284630077  0.26608990998514703  0.8234860194380862  1.0000
  H   H41       1.0  0.6627743052470305  0.8378894736532526  0.23771616493486805  1.0000
  H   H42       1.0  0.648306126263734  0.639788088561688  0.1929777324696421  1.0000
  H   H43       1.0  0.7405859458616676  0.7536107847198585  0.9052247775337712  1.0000
  H   H44       1.0  0.6282137532851906  0.733865371547744  0.3181842167253234  1.0000
  H   H45       1.0  0.6853116630928259  0.15064393114904448  0.7647700003516151  1.0000
  H   H46       1.0  0.6882348220585404  0.34892992918118587  0.759591863579891  1.0000
  H   H47       1.0  0.710949084913912  0.25350022277409356  0.1260026244379514  1.0000
  H   H48       1.0  0.6758690943877129  0.24872089338030523  0.6494540084659538  1.0000
  H   H49       1.0  0.3382016110300898  0.8460506819724756  0.22533322258580435  1.0000
  H   H50       1.0  0.3191810347602498  0.6467448458704448  0.2109811092076873  1.0000
  H   H51       1.0  0.2788242970222062  0.7567536904739551  0.8736309108547139  1.0000
  H   H52       1.0  0.3384588221931941  0.7435314307704081  0.33668011731398784  1.0000
  H   H53       1.0  0.31702378052950936  0.15119191546622482  0.763745287213281  1.0000
  H   H54       1.0  0.3382247657458144  0.347725925955426  0.7542383592700536  1.0000
  H   H55       1.0  0.2731228555684017  0.2602029574722142  0.10437842645486702  1.0000
  H   H56       1.0  0.3391972788673915  0.23530553770939683  0.6413028019669021  1.0000
  H   H57       1.0  0.8245376762265945  0.8552372162570834  0.3007946064446436  1.0000
  H   H58       1.0  0.8261263251883203  0.6554005561905675  0.266548916533065  1.0000
  H   H59       1.0  0.7915193203267215  0.7406871363591291  0.6275821085373418  1.0000
  H   H60       1.0  0.8339404855275143  0.7649716777696706  0.15858671958622694  1.0000
  H   H61       1.0  0.8404546744265969  0.14389774930085772  0.7185836559882152  1.0000
  H   H62       1.0  0.8666171298176499  0.34524692203529117  0.709898096526116  1.0000
  H   H63       1.0  0.7738981060465852  0.2560888492420149  0.4038505461305251  1.0000
  H   H64       1.0  0.8971547051443364  0.24339156083137156  0.8123516616121785  1.0000
  H   H65       1.0  0.09681282472668554  0.4190444911829932  0.0064161128705405215  1.0000
  H   H66       1.0  0.9001826440533187  0.4139688723894545  0.013147168806178122  1.0000
  H   H67       1.0  0.9983842830818629  0.48120786188687714  0.3461481418692937  1.0000
  H   H68       1.0  0.9989679563182954  0.40274677186514657  0.898875238989773  1.0000
  H   H69       1.0  0.10210694025649722  0.5968390186326904  0.963047607920491  1.0000
  H   H70       1.0  0.9025390638753508  0.5843044021534887  0.9690258175925428  1.0000
  H   H71       1.0  0.004190222401643965  0.5181187699061447  0.6374668534625091  1.0000
  H   H72       1.0  0.0007859022543365202  0.6129513510635025  0.07976424591840482  1.0000
  H   H73       1.0  0.5986715545204166  0.38677169760817354  0.4456881635717153  1.0000
  H   H74       1.0  0.4045703193567724  0.41999212442266304  0.48192045541519557  1.0000
  H   H75       1.0  0.504865145770788  0.48385300759071054  0.13826875845109884  1.0000
  H   H76       1.0  0.5046532372299383  0.3848061480534441  0.5733071312432703  1.0000
  H   H77       1.0  0.6102938801806401  0.5757489042043641  0.518012305678358  1.0000
  H   H78       1.0  0.408537324748549  0.5954700976166166  0.5157566663680664  1.0000
  H   H79       1.0  0.5094191823990856  0.5068780853151231  0.836640934124195  1.0000
  H   H80       1.0  0.5116621792031931  0.6058247185991852  0.39351837044819393  1.0000
  C   C1        1.0  0.558279789560261  0.9336190163551014  0.5893984381522134  1.0000
  C   C2        1.0  0.5604078959954373  0.9558375100706483  0.7120079239478181  1.0000
  C   C3        1.0  0.618357026017242  0.9563329760530095  0.7845045827121828  1.0000
  C   C4        1.0  0.5043722527920463  0.9692768955430521  0.7772251478318941  1.0000
  C   C5        1.0  0.4989512493087817  0.9271222347040846  0.5200718359105888  1.0000
  C   C6        1.0  0.4461831591117905  0.939209305580886  0.5890167963443823  1.0000
  C   C7        1.0  0.4480112077221763  0.9577979061101544  0.7171562261055889  1.0000
  C   C8        1.0  0.38514281430191744  0.9618228165757333  0.7846127723108239  1.0000
  C   C9        1.0  0.5522428328815999  0.07196670786684507  0.42952819933702135  1.0000
  C   C10       1.0  0.552630455524076  0.05320500474958497  0.2962787652490329  1.0000
  C   C11       1.0  0.6148180531130865  0.043489510682442285  0.23419175651833063  1.0000
  C   C12       1.0  0.4945930365808275  0.04277776727148155  0.23532339079335196  1.0000
  C   C13       1.0  0.497243865316013  0.08941638598417459  0.4914612031785147  1.0000
  C   C14       1.0  0.4403421920475776  0.07654734352416197  0.430751803421701  1.0000
  C   C15       1.0  0.4360459043772146  0.05448599229565755  0.2983166946919927  1.0000
  C   C16       1.0  0.37579598839384626  0.04410117764749993  0.23523480452090523  1.0000
  C   C17       1.0  0.05746530643178287  0.9316448837283828  0.9369278864890908  1.0000
  C   C18       1.0  0.05757757264881757  0.9630472267655681  0.8088987157177127  1.0000
  C   C19       1.0  0.11749627751314298  0.9679116350143085  0.7334032729264134  1.0000
  C   C20       1.0  0.0020534325399474973  0.9714216736418568  0.7456976844071158  1.0000
  C   C21       1.0  0.0032418355145822364  0.9079185295140877  0.988657546642689  1.0000
  C   C22       1.0  0.9477645132002687  0.9166664832444715  0.9220032671451605  1.0000
  C   C23       1.0  0.9475172944796629  0.9517415908523846  0.8098131727822226  1.0000
  C   C24       1.0  0.8863055473405436  0.9606087459229428  0.7323067590094869  1.0000
  C   C25       1.0  0.05041638773013691  0.07550347020951671  0.07768408009438965  1.0000
  C   C26       1.0  0.051862964338197697  0.05249023353013999  0.20603211984491185  1.0000
  C   C27       1.0  0.11272081938481388  0.04447488642027185  0.27343090194517455  1.0000
  C   C28       1.0  0.9977774006658495  0.04091537552815366  0.26696633577200296  1.0000
  C   C29       1.0  0.9960920409337234  0.0835745925680848  0.016155100339202175  1.0000
  C   C30       1.0  0.9407440351998386  0.0748165817969354  0.08228165592389373  1.0000
  C   C31       1.0  0.94008844036726  0.05466815723415971  0.211506834685446  1.0000
  C   C32       1.0  0.8813678876754312  0.04778153055559026  0.2807309996332896  1.0000
  C   C33       1.0  0.1659533859725033  0.8109344807890957  0.32815670422563786  1.0000
  C   C34       1.0  0.1978173868359512  0.8116965242438189  0.4406550581713785  1.0000
  C   C35       1.0  0.20661320670721706  0.8698683448018685  0.5102198668759051  1.0000
  C   C36       1.0  0.21534424635886654  0.7529585964513646  0.4940247074390012  1.0000
  C   C37       1.0  0.15062224861086518  0.757885464758536  0.25460820278915236  1.0000
  C   C38       1.0  0.1623532046813325  0.699410860882867  0.3195635976579412  1.0000
  C   C39       1.0  0.1951365268104686  0.7003164036327137  0.43817133579377754  1.0000
  C   C40       1.0  0.2102900527778163  0.6399538224772044  0.5042461565987837  1.0000
  C   C41       1.0  0.17127205492194864  0.20522851646590073  0.6590072425605052  1.0000
  C   C42       1.0  0.20002646246560318  0.20123908298288382  0.5342946118534914  1.0000
  C   C43       1.0  0.20841057189209394  0.14087251258337327  0.4767439545219911  1.0000
  C   C44       1.0  0.2109432322008633  0.2569743923919733  0.4663961432235769  1.0000
  C   C45       1.0  0.15633822626909186  0.26150222656347405  0.7180984445048588  1.0000
  C   C46       1.0  0.16346085071684313  0.3152897810231121  0.6471185863007751  1.0000
  C   C47       1.0  0.1918224551398547  0.31036359919669954  0.5205338457182082  1.0000
  C   C48       1.0  0.20205018605176653  0.3713298287526854  0.4475406040249721  1.0000
  C   C49       1.0  0.6683251557227733  0.7967736831807647  0.18290770753509364  1.0000
  C   C50       1.0  0.702098693628307  0.8001011937190019  0.06527249188920362  1.0000
  C   C51       1.0  0.7093739831350949  0.8616934858169485  0.9926593749785815  1.0000
  C   C52       1.0  0.7101266879770548  0.7469742880002028  0.9866809582702107  1.0000
  C   C53       1.0  0.6512278208411824  0.739410245580533  0.22610306721157228  1.0000
  C   C54       1.0  0.6620499148712666  0.6879439913126956  0.15325776414620143  1.0000
  C   C55       1.0  0.6925310085379217  0.6907368063072458  0.03737261386788306  1.0000
  C   C56       1.0  0.7005285223068206  0.6334450634279886  0.9650824084906316  1.0000
  C   C57       1.0  0.6925880818149843  0.19370012596990946  0.8176752729879728  1.0000
  C   C58       1.0  0.706006825863429  0.19507139564956077  0.951724602100015  1.0000
  C   C59       1.0  0.7129778679901319  0.1345317977615948  0.024441388802316413  1.0000
  C   C60       1.0  0.707912266903123  0.25003349576004696  0.017900190031109937  1.0000
  C   C61       1.0  0.6865054608796851  0.24905868497106268  0.7508058079110007  1.0000
  C   C62       1.0  0.6914405396448032  0.3050240345231527  0.8159423119307464  1.0000
  C   C63       1.0  0.7011965844396679  0.30533851754671204  0.9490811030883151  1.0000
  C   C64       1.0  0.7077533444376172  0.3629868340416958  0.026593974569877794  1.0000
  C   C65       1.0  0.3280719755172492  0.8031503857454476  0.17259581558000492  1.0000
  C   C66       1.0  0.3084617319090208  0.8053423970698331  0.040045397340688904  1.0000
  C   C67       1.0  0.2938722967389172  0.8659294711376856  0.9783375112590572  1.0000
  C   C68       1.0  0.29096617240456357  0.7512082666348228  0.9753950712429076  1.0000
  C   C69       1.0  0.32663246719097616  0.7467491587658073  0.23807254442378842  1.0000
  C   C70       1.0  0.3114944666618868  0.6944477714421305  0.16743265054734124  1.0000
  C   C71       1.0  0.29662441253146615  0.6952714370455555  0.039455660704335774  1.0000
  C   C72       1.0  0.29163013001858906  0.6374447577502863  0.9648765006654781  1.0000
  C   C73       1.0  0.31443627142358443  0.1930793219354122  0.8182077645681531  1.0000
  C   C74       1.0  0.2932240669523075  0.195495200594979  0.9442665211205631  1.0000
  C   C75       1.0  0.287245247090819  0.1364867443932704  0.02410232552006771  1.0000
  C   C76       1.0  0.28895186145929275  0.2526100923695951  0.0025303463734143807  1.0000
  C   C77       1.0  0.3211070017522475  0.2474613994930628  0.7379421622215245  1.0000
  C   C78       1.0  0.32362001589882317  0.3043778781029066  0.8005551024943028  1.0000
  C   C79       1.0  0.30525562423719727  0.30560488993036866  0.9306133477750017  1.0000
  C   C80       1.0  0.29656580059514703  0.36812610732751566  0.9956854467064268  1.0000
  C   C81       1.0  0.8173309915204938  0.8093351760240759  0.3341345280130953  1.0000
  C   C82       1.0  0.8054018418946898  0.8059801549350133  0.47107655399266907  1.0000
  C   C83       1.0  0.7956447171041908  0.8640179896525635  0.5338076643754612  1.0000
  C   C84       1.0  0.7989528950048816  0.7503034676299949  0.5237852811222937  1.0000
  C   C85       1.0  0.8259638431729769  0.756374751577238  0.259109945103047  1.0000
  C   C86       1.0  0.8199994531301754  0.6989855702779608  0.3172774238926183  1.0000
  C   C87       1.0  0.8055789285667919  0.6976574031225586  0.4484976648871034  1.0000
  C   C88       1.0  0.8008985832465084  0.634663768084132  0.5177106527897313  1.0000
  C   C89       1.0  0.8422300565508628  0.18829878581113493  0.6711903161297172  1.0000
  C   C90       1.0  0.8078088132464061  0.19324144423196818  0.5571733634209259  1.0000
  C   C91       1.0  0.7921285928929576  0.13208564116263435  0.4874482590335008  1.0000
  C   C92       1.0  0.7977971873945331  0.2526228831606004  0.49534272008509533  1.0000
  C   C93       1.0  0.8637474296354978  0.24430740524022063  0.727724453323503  1.0000
  C   C94       1.0  0.8505169196540924  0.3022345331229433  0.669413248560555  1.0000
  C   C95       1.0  0.8156131624998373  0.30510135553293155  0.5559616274745265  1.0000
  C   C96       1.0  0.8030735607916624  0.36277308750125614  0.4823561473102783  1.0000
  C   C97       1.0  0.05398656367351549  0.42853892717143216  0.051491811387247  1.0000
  C   C98       1.0  0.05530446289518873  0.4530425920934568  0.17773607248138387  1.0000
  C   C99       1.0  0.11512285585547502  0.45960774683124983  0.2492764003567417  1.0000
  C   C100      1.0  0.9993709083551754  0.4610256851520565  0.24914579931958095  1.0000
  C   C101      1.0  0.997977052483921  0.41668249468589286  0.992769500535085  1.0000
  C   C102      1.0  0.9438067586975681  0.41800175620265606  0.06789498594855023  1.0000
  C   C103      1.0  0.9433502116618537  0.4452738675493093  0.18538559693171017  1.0000
  C   C104      1.0  0.8867138912677114  0.45481785779630396  0.26625265339274  1.0000
  C   C105      1.0  0.05918404954166434  0.5774132845856038  0.9201124598488085  1.0000
  C   C106      1.0  0.06202828772828034  0.556534198234248  0.7893478076200526  1.0000
  C   C107      1.0  0.12182640125137918  0.5481330866043804  0.714592906525387  1.0000
  C   C108      1.0  0.004881820486147612  0.5377458806340153  0.7352989110702064  1.0000
  C   C109      1.0  0.003827515674272658  0.5880797523458803  0.9843479087606868  1.0000
  C   C110      1.0  0.9477635054817456  0.5744141675006238  0.9235723662459954  1.0000
  C   C111      1.0  0.9488187919889413  0.5457217126618279  0.8018898986902482  1.0000
  C   C112      1.0  0.8866189271908799  0.5353964902020807  0.7368868038199885  1.0000
  C   C113      1.0  0.5565711020160742  0.40990457969171973  0.40940229694971547  1.0000
  C   C114      1.0  0.5554131309343554  0.44069422024056404  0.28877341389277195  1.0000
  C   C115      1.0  0.6152597387519239  0.4575860352274647  0.22052333246927916  1.0000
  C   C116      1.0  0.5006884338741815  0.4612998737573662  0.23266664631725048  1.0000
  C   C117      1.0  0.5018843235097065  0.4038393092060295  0.47758865006704954  1.0000
  C   C118      1.0  0.4464791784139506  0.4258431191891093  0.42828477128180753  1.0000
  C   C119      1.0  0.4461579393419683  0.45350784264977945  0.29825457116030574  1.0000
  C   C120      1.0  0.3860716391723942  0.4627576958301274  0.22669580052854107  1.0000
  C   C121      1.0  0.5632074680200152  0.5687761243263357  0.5534443224451993  1.0000
  C   C122      1.0  0.5629843094903542  0.5443097992537865  0.6824907413834134  1.0000
  C   C123      1.0  0.6204578821227646  0.5329875933821674  0.7581512416929455  1.0000
  C   C124      1.0  0.5071775366240334  0.5341372504073366  0.7444778341922181  1.0000
  C   C125      1.0  0.5100909410692056  0.5865065743678555  0.4915865252755444  1.0000
  C   C126      1.0  0.45216966054140734  0.5825273937395146  0.5609688766630377  1.0000
  C   C127      1.0  0.45142825123612257  0.5552453753794597  0.6874140844866867  1.0000
  C   C128      1.0  0.39039816871847766  0.5492709366012549  0.7630032398863286  1.0000
  O   O1        1.0  0.7520035182746884  0.9889602047163019  0.8944756482012192  1.0000
  O   O2        1.0  0.6242295371202272  0.9939142796402406  0.8802624999331458  1.0000
  O   O3        1.0  0.65968950946154  0.9189046741247258  0.7513131820004934  1.0000
  O   O4        1.0  0.3830178015834355  0.9860873230987481  0.9000829527939772  1.0000
  O   O5        1.0  0.33915748093820375  0.9395768056710364  0.7269150725368387  1.0000
  O   O6        1.0  0.7456132576035666  0.0017090445973063238  0.14787680468207576  1.0000
  O   O7        1.0  0.617797254789894  0.015137632615824844  0.12581707712815862  1.0000
  O   O8        1.0  0.6917800386773516  0.08667803761718981  0.9655831768579497  1.0000
  O   O9        1.0  0.6826272602419459  0.9089721594592961  0.03514411769939922  1.0000
  O   O10       1.0  0.6591660003172171  0.06749175531970895  0.29220452960561355  1.0000
  O   O11       1.0  0.38091782568099075  0.01069691410585742  0.13292431222321335  1.0000
  O   O12       1.0  0.3306355623495164  0.07346246814506023  0.27968337933567244  1.0000
  O   O13       1.0  0.24845078643254004  0.9907565455174467  0.6160317292106491  1.0000
  O   O14       1.0  0.11794202582569906  0.002403200495169955  0.6320968319312308  1.0000
  O   O15       1.0  0.1638873971550522  0.9354334166802042  0.778920525479232  1.0000
  O   O16       1.0  0.8843280475106855  0.9975953514972314  0.6347300413350819  1.0000
  O   O17       1.0  0.8436243209949057  0.923654612156808  0.7809739262700217  1.0000
  O   O18       1.0  0.23823570221816157  0.009455878344582823  0.3708484116063564  1.0000
  O   O19       1.0  0.11373016737522137  0.019808009046361427  0.3809213846214457  1.0000
  O   O20       1.0  0.1918465264432065  0.0935850395218096  0.5449069028152754  1.0000
  O   O21       1.0  0.17579955390432545  0.9180303060233754  0.47129412486378675  1.0000
  O   O22       1.0  0.15779317213125754  0.06928217880525185  0.20930305651503456  1.0000
  O   O23       1.0  0.8810569466590156  0.012710932085986384  0.38096295420947407  1.0000
  O   O24       1.0  0.8337185322213829  0.07429223110003383  0.2306655965550953  1.0000
  O   O25       1.0  0.24038389606115926  0.8666332961218416  0.6161228446309914  1.0000
  O   O26       1.0  0.25162476110159765  0.6400328709323899  0.5973425043282132  1.0000
  O   O27       1.0  0.1772964886787698  0.5929578092741525  0.47468691650159894  1.0000
  O   O28       1.0  0.25699787120682765  0.9917705117317882  0.8728413773666198  1.0000
  O   O29       1.0  0.26666933154064465  0.8625298752062203  0.8681077028594871  1.0000
  O   O30       1.0  0.2222883986897071  0.1348606627626297  0.3560584047497656  1.0000
  O   O31       1.0  0.2376919063834699  0.36884490605829345  0.35021733379694436  1.0000
  O   O32       1.0  0.1730096539273848  0.41762389662457555  0.4898813615171334  1.0000
  O   O33       1.0  0.25322142790180185  0.006163932185567471  0.11966949716723105  1.0000
  O   O34       1.0  0.2532876002220574  0.13581757450330728  0.12733981953359172  1.0000
  O   O35       1.0  0.7521735685370917  0.860883445953613  0.9018851329938197  1.0000
  O   O36       1.0  0.7392868856063115  0.6338078345583015  0.8733189333661846  1.0000
  O   O37       1.0  0.6735124779668364  0.5848617740376276  0.014371981088718658  1.0000
  O   O38       1.0  0.754398402293689  0.983585687896884  0.6380303120383869  1.0000
  O   O39       1.0  0.7564805550488041  0.863127803010451  0.6290060392145782  1.0000
  O   O40       1.0  0.734765565522523  0.13876700037457293  0.14051025319560398  1.0000
  O   O41       1.0  0.7409658797984319  0.36121464277634235  0.13030139437121396  1.0000
  O   O42       1.0  0.6762173585971374  0.4094680831742157  0.9889035106495397  1.0000
  O   O43       1.0  0.7522041850702182  0.00939080225958804  0.39313993235729744  1.0000
  O   O44       1.0  0.7551985401753274  0.13220313061028394  0.3893763863004237  1.0000
  O   O45       1.0  0.3140836886555493  0.9123119903138547  0.04608314113243921  1.0000
  O   O46       1.0  0.2606879688191387  0.6365991554279895  0.8610852049109505  1.0000
  O   O47       1.0  0.320929146295458  0.5900499293325076  0.01223236570913516  1.0000
  O   O48       1.0  0.31718502764996287  0.09020833775910513  0.974844008602123  1.0000
  O   O49       1.0  0.26058596994522937  0.3684644634342016  0.09646924444059819  1.0000
  O   O50       1.0  0.32207260474422067  0.41419449040312817  0.9413904211785952  1.0000
  O   O51       1.0  0.8197036098349751  0.9127944373973816  0.480076244898615  1.0000
  O   O52       1.0  0.77941556462317  0.6352108907207861  0.6391442160340989  1.0000
  O   O53       1.0  0.8198899726541365  0.5871095681430608  0.45910664812779267  1.0000
  O   O54       1.0  0.8136108085306514  0.08294723875506435  0.5430855945979707  1.0000
  O   O55       1.0  0.7671617427920285  0.35763528058095867  0.385137223386972  1.0000
  O   O56       1.0  0.8251722471026127  0.4124558302602972  0.5342340163081579  1.0000
  O   O57       1.0  0.24740782137414594  0.5011550871695307  0.3619431078777921  1.0000
  O   O58       1.0  0.11283944041025452  0.4947919146502597  0.35354629798444515  1.0000
  O   O59       1.0  0.16221999181352525  0.4321734730951087  0.2006113889955275  1.0000
  O   O60       1.0  0.8856933835060113  0.485006098671758  0.3732947459463697  1.0000
  O   O61       1.0  0.8363034273937509  0.43169501426002194  0.21910086271029292  1.0000
  O   O62       1.0  0.243484327746896  0.5047182407642153  0.6167775031913418  1.0000
  O   O63       1.0  0.11960614208175992  0.5148872826386903  0.6132837828060722  1.0000
  O   O64       1.0  0.16988556212593292  0.5779593604120877  0.7554661954492518  1.0000
  O   O65       1.0  0.8825126105098192  0.5092719152668793  0.6266834921812307  1.0000
  O   O66       1.0  0.8425055941258208  0.5601167436157962  0.8019482158640724  1.0000
  O   O67       1.0  0.743040047097883  0.4939944557586829  0.13050304677381297  1.0000
  O   O68       1.0  0.6161237637504265  0.49353185670374483  0.12694942193627437  1.0000
  O   O69       1.0  0.6634792286264851  0.43141001057804274  0.2637244726386613  1.0000
  O   O70       1.0  0.3855447198367113  0.4920111340140663  0.11675217366976773  1.0000
  O   O71       1.0  0.3391424090596428  0.44115002624826344  0.27734912551629337  1.0000
  O   O72       1.0  0.7446570109157943  0.5059360934300104  0.8754662469976255  1.0000
  O   O73       1.0  0.6226047634550752  0.4981961690470401  0.8552326108803805  1.0000
  O   O74       1.0  0.6652075069944025  0.569671434205634  0.7219840340977125  1.0000
  O   O75       1.0  0.3903695967196631  0.5166041008471051  0.8642862643934434  1.0000
  O   O76       1.0  0.34314820758261694  0.5794472904938922  0.7106928642422723  1.0000
  O   O77       1.0  0.7521842433166893  0.482921939300899  0.37979570579959737  1.0000
  O   O78       1.0  0.7625481751774812  0.5040356413966134  0.6299071001544546  1.0000
  O   O79       1.0  0.25732520404835696  0.4974673904087049  0.10570472638572585  1.0000
  O   O80       1.0  0.25767686065354095  0.5089883333802566  0.8621837901630673  1.0000
