data_image0
_chemical_formula_structural       Al16H80C128O80
_chemical_formula_sum              "Al16 H80 C128 O80"
_cell_length_a       21.63717
_cell_length_b       21.63649
_cell_length_c       10.288049999999998
_cell_angle_alpha    90.00093999999999
_cell_angle_beta     89.99906
_cell_angle_gamma    90.00852000000002

_space_group_name_H-M_alt    "P 1"
_space_group_IT_number       1

loop_
  _space_group_symop_operation_xyz
  'x, y, z'

loop_
  _atom_site_type_symbol
  _atom_site_label
  _atom_site_symmetry_multiplicity
  _atom_site_fract_x
  _atom_site_fract_y
  _atom_site_fract_z
  _atom_site_occupancy
  Al  Al1       1.0  0.6765719717785414  0.0008060606202286991  0.004759019446170692  1.0000
  Al  Al2       1.0  0.3289066520000545  0.0002645085788643975  0.003365350091544823  1.0000
  Al  Al3       1.0  0.7488177471289159  0.9311051343865182  0.7474825192402418  1.0000
  Al  Al4       1.0  0.24750333971475635  0.9452735898780511  0.7456584592866986  1.0000
  Al  Al5       1.0  0.7386884289779886  0.06972513832446212  0.2684936553324861  1.0000
  Al  Al6       1.0  0.24318786768763745  0.07128654197563297  0.2393644685496992  1.0000
  Al  Al7       1.0  0.1727047734819969  0.010168808492001795  0.5008295868883469  1.0000
  Al  Al8       1.0  0.8186639468295732  0.9998145896387809  0.4949621474789111  1.0000
  Al  Al9       1.0  0.2490699665564909  0.5721249088657193  0.7324091603392126  1.0000
  Al  Al10      1.0  0.18599236254972815  0.5059042461817507  0.47233751695489135  1.0000
  Al  Al11      1.0  0.2572059328761946  0.43996337107648564  0.23443371976701913  1.0000
  Al  Al12      1.0  0.7546373029299389  0.5651138653366702  0.7604870555747275  1.0000
  Al  Al13      1.0  0.6857069293904234  0.4965460197029707  0.9985841641512317  1.0000
  Al  Al14      1.0  0.75534766086477  0.4243469827255509  0.23658672446722578  1.0000
  Al  Al15      1.0  0.3277527310436739  0.5028594428290267  0.9893096767580253  1.0000
  Al  Al16      1.0  0.8257157808160042  0.49440786919766344  0.49465952064478436  1.0000
  H   H1        1.0  0.7574403320370687  0.4686965212851377  0.6722126468923818  1.0000
  H   H2        1.0  0.7235821025190352  0.4960952959352068  0.4077400519174108  1.0000
  H   H3        1.0  0.22358700042723392  0.00020377770533001283  0.9309239100293513  1.0000
  H   H4        1.0  0.2849746585364677  0.5076434228504297  0.5588393137229377  1.0000
  H   H5        1.0  0.25914140210371445  0.5422280337487022  0.3080096714977856  1.0000
  H   H6        1.0  0.7876390441343802  0.49634951275488803  0.9212431328143491  1.0000
  H   H7        1.0  0.75894928377246  0.5239865267600993  0.15353628534319905  1.0000
  H   H8        1.0  0.25388196754979137  0.47447672002183733  0.8199404340249303  1.0000
  H   H9        1.0  0.7154021222443204  0.0028731779464716833  0.4472936427445853  1.0000
  H   H10       1.0  0.7383955572887207  0.9700023891906846  0.17801238529097996  1.0000
  H   H11       1.0  0.7822477788558261  0.9933031266014162  0.9178465736987339  1.0000
  H   H12       1.0  0.7452936443286191  0.032623730194973596  0.6653427279068578  1.0000
  H   H13       1.0  0.25783770082037805  0.9728452732593483  0.17269152370742116  1.0000
  H   H14       1.0  0.2408986962862438  0.048143593386843056  0.679451620266349  1.0000
  H   H15       1.0  0.2675367600969208  0.011932187385460091  0.41923613621247435  1.0000
  H   H16       1.0  0.22600520040516195  0.5190750138782172  0.08327043805488431  1.0000
  H   H17       1.0  0.6064858008791166  0.9077172387096024  0.5397022304026793  1.0000
  H   H18       1.0  0.4069874821334226  0.8880342505974804  0.5519043552012353  1.0000
  H   H19       1.0  0.5010397344813828  0.9723244309259264  0.8656819098271131  1.0000
  H   H20       1.0  0.5028956144900808  0.8661346926785829  0.4349898757494729  1.0000
  H   H21       1.0  0.5901935562023812  0.08857135512322073  0.47634182681060616  1.0000
  H   H22       1.0  0.39330448180703553  0.06678684102513624  0.5071768762208806  1.0000
  H   H23       1.0  0.49273752091845585  0.01520897601285648  0.15734485645342353  1.0000
  H   H24       1.0  0.4993940295282257  0.0843627320634391  0.6167781349923149  1.0000
  H   H25       1.0  0.10152727475650196  0.9452904725350287  0.9973236942628885  1.0000
  H   H26       1.0  0.9053541502578957  0.9010812748473083  0.959856037116613  1.0000
  H   H27       1.0  0.002056785378554693  0.9821210437101833  0.6334146375410061  1.0000
  H   H28       1.0  0.9988733813346495  0.9014761628875739  0.09888449028472679  1.0000
  H   H29       1.0  0.08608539570561168  0.10285481363828762  0.022470345698379586  1.0000
  H   H30       1.0  0.887873394456806  0.08979015526481518  0.02562790130986499  1.0000
  H   H31       1.0  0.9924561513281268  0.025545114379488768  0.3611941321241679  1.0000
  H   H32       1.0  0.9821100510732041  0.11597950741176603  0.9166454306246503  1.0000
  H   H33       1.0  0.13988752584442452  0.8567069464867554  0.2998054325970497  1.0000
  H   H34       1.0  0.1583848198279902  0.6605397998237054  0.2762800774456716  1.0000
  H   H35       1.0  0.22541432661631894  0.7597285157662527  0.6172158505945148  1.0000
  H   H36       1.0  0.12978010941339627  0.7614921299799213  0.17079254479448258  1.0000
  H   H37       1.0  0.14481507621321604  0.16421289848643317  0.706598363339639  1.0000
  H   H38       1.0  0.18840788462849872  0.3627028541452714  0.7065582527258578  1.0000
  H   H39       1.0  0.23228900270395542  0.2528510146978417  0.3702293837048869  1.0000
  H   H40       1.0  0.15007330848071995  0.26740281924074827  0.8252498425148483  1.0000
  H   H41       1.0  0.6681597658300293  0.849685397071229  0.2248355830913056  1.0000
  H   H42       1.0  0.6878407009424388  0.6466999659254223  0.2407599701271472  1.0000
  H   H43       1.0  0.7205649065705533  0.7451407162182654  0.8896382494703232  1.0000
  H   H44       1.0  0.6675147029101368  0.7562540302020222  0.3631810033004842  1.0000
  H   H45       1.0  0.6502325044261827  0.13858727752495517  0.8146469371995206  1.0000
  H   H46       1.0  0.6756554032809373  0.3418309029707399  0.7662408048290498  1.0000
  H   H47       1.0  0.7244829500663091  0.2517499706457781  0.12397459774624452  1.0000
  H   H48       1.0  0.6552841013811602  0.2364513651058522  0.6553624614785615  1.0000
  H   H49       1.0  0.29282498787551786  0.8505825936123897  0.23955324290446253  1.0000
  H   H50       1.0  0.32222974317250297  0.6568176348490223  0.22298382303909678  1.0000
  H   H51       1.0  0.26742591959519496  0.7499096094116089  0.8680026917057417  1.0000
  H   H52       1.0  0.32197763781152544  0.7493818192855926  0.33852417036632587  1.0000
  H   H53       1.0  0.33803245204408067  0.1503978452563536  0.7675852286998244  1.0000
  H   H54       1.0  0.348344613719273  0.3475554505357815  0.7625952850259683  1.0000
  H   H55       1.0  0.2846628857951134  0.24830800227155678  0.09912602390875357  1.0000
  H   H56       1.0  0.3616640556241308  0.25159411096847456  0.6462715725321461  1.0000
  H   H57       1.0  0.8415099867586824  0.8518352349652293  0.285249677129269  1.0000
  H   H58       1.0  0.8535855493228408  0.6499750191108773  0.29577670120371913  1.0000
  H   H59       1.0  0.7648788418173218  0.7545433948092253  0.5998748520527102  1.0000
  H   H60       1.0  0.8718791856505909  0.7480070485531578  0.17294816806672256  1.0000
  H   H61       1.0  0.8293953843905909  0.1499304394088411  0.7327915739162323  1.0000
  H   H62       1.0  0.8550297899092228  0.3470785406264822  0.6933474975257395  1.0000
  H   H63       1.0  0.7615257965870109  0.24340104723112063  0.393965031380172  1.0000
  H   H64       1.0  0.8626305708708731  0.24959889781675204  0.8393905445953351  1.0000
  H   H65       1.0  0.1057137958953661  0.4191330336729974  0.0006605294493931134  1.0000
  H   H66       1.0  0.9066183497935619  0.3978145729493772  0.035756408658492084  1.0000
  H   H67       1.0  0.0038567473632542537  0.46591560814203586  0.363796883861106  1.0000
  H   H68       1.0  0.003014287678346994  0.3817749936627346  0.915974256786862  1.0000
  H   H69       1.0  0.10372312761030617  0.5805441107551385  0.9566039300594932  1.0000
  H   H70       1.0  0.9081480694863393  0.5748148452866234  0.9865061875410168  1.0000
  H   H71       1.0  0.0018989245510810824  0.5130743860993936  0.6352828010904806  1.0000
  H   H72       1.0  0.009183829530211811  0.5926406693224621  0.08037146594568709  1.0000
  H   H73       1.0  0.5980212824216738  0.4272584340405786  0.4982372375114311  1.0000
  H   H74       1.0  0.40082338520939975  0.4454290759966513  0.4601872931482769  1.0000
  H   H75       1.0  0.5087952898724428  0.467237374981168  0.130122206867217  1.0000
  H   H76       1.0  0.49547911449789356  0.42891799651249807  0.6004312684777413  1.0000
  H   H77       1.0  0.6074439800011555  0.5773385821010187  0.507936163938388  1.0000
  H   H78       1.0  0.4056559136757398  0.5888191556546108  0.5239477433965294  1.0000
  H   H79       1.0  0.5076173915590395  0.5250860941406548  0.8552264260348542  1.0000
  H   H80       1.0  0.5120814835245909  0.6090840632644979  0.4023917021315127  1.0000
  C   C1        1.0  0.5602742437480629  0.9175818131940288  0.5783652063900673  1.0000
  C   C2        1.0  0.5567793341163602  0.9460594669794213  0.6990356395950091  1.0000
  C   C3        1.0  0.6145842340664182  0.95623719541329  0.7638433067602576  1.0000
  C   C4        1.0  0.5008311062045727  0.9555788685468348  0.7634136752945094  1.0000
  C   C5        1.0  0.5045374133442765  0.8973424214628168  0.5241351248731474  1.0000
  C   C6        1.0  0.4491834999771248  0.9101152122573449  0.5840257679168553  1.0000
  C   C7        1.0  0.4453629419640017  0.9392288687279193  0.7075735481416859  1.0000
  C   C8        1.0  0.3871313166365099  0.9577092459946754  0.7740786399894253  1.0000
  C   C9        1.0  0.5458832263013204  0.07806551558457481  0.43824308116828475  1.0000
  C   C10       1.0  0.5475476469716342  0.05019928945247598  0.31288058581230443  1.0000
  C   C11       1.0  0.6058873273696048  0.04246961046848332  0.24432121351242042  1.0000
  C   C12       1.0  0.4923302503910761  0.03580265466588988  0.24615244489300955  1.0000
  C   C13       1.0  0.49255547980039294  0.07912262033403476  0.5095038759930866  1.0000
  C   C14       1.0  0.4372300979840738  0.0682984226447673  0.448811924635148  1.0000
  C   C15       1.0  0.43828235646746155  0.0507539556856321  0.31454135631833796  1.0000
  C   C16       1.0  0.3809832442627841  0.04440486230633257  0.23487934065739524  1.0000
  C   C17       1.0  0.05617240783332879  0.9414940786678203  0.9374935310963357  1.0000
  C   C18       1.0  0.05617034971012855  0.9566357839860199  0.8044779741765811  1.0000
  C   C19       1.0  0.1146883448819237  0.9704104703608891  0.7345610608457184  1.0000
  C   C20       1.0  0.000973460796526826  0.9624402045329065  0.7348278402646305  1.0000
  C   C21       1.0  0.00196175864162762  0.9205831378037512  0.001383091331452313  1.0000
  C   C22       1.0  0.9476732043694627  0.9230778297198284  0.9272910029176966  1.0000
  C   C23       1.0  0.9461702576318995  0.9445686439357202  0.7945696776551379  1.0000
  C   C24       1.0  0.8859530768307671  0.9470945229929534  0.7266416698997251  1.0000
  C   C25       1.0  0.04379397475327564  0.08535250562222234  0.0666262382263373  1.0000
  C   C26       1.0  0.04579742643840633  0.05715580253311977  0.19309055948742607  1.0000
  C   C27       1.0  0.10563293019026236  0.04918752129724628  0.2562247511150718  1.0000
  C   C28       1.0  0.9911253984810653  0.04354372879601644  0.2663060425189736  1.0000
  C   C29       1.0  0.9873243574441244  0.09462253733977206  0.007882664841425234  1.0000
  C   C30       1.0  0.9310683633968074  0.08067408332116419  0.07364078617462888  1.0000
  C   C31       1.0  0.9344077259330024  0.05893746113423477  0.20487096394041923  1.0000
  C   C32       1.0  0.8772609910056567  0.043704694790882265  0.2776777018743894  1.0000
  C   C33       1.0  0.15165084901667228  0.8142139380943388  0.34542606722910446  1.0000
  C   C34       1.0  0.18083388703891684  0.8124689358896238  0.472040543281472  1.0000
  C   C35       1.0  0.19482698718886843  0.8751598662568739  0.5295950069708351  1.0000
  C   C36       1.0  0.20509678537119805  0.7571550048025113  0.5187715749278369  1.0000
  C   C37       1.0  0.14583471549765337  0.7609210391445793  0.26885386839531117  1.0000
  C   C38       1.0  0.16799847955631267  0.7059240977749537  0.3249162670184925  1.0000
  C   C39       1.0  0.19695221824608164  0.7024813588313283  0.448487587175581  1.0000
  C   C40       1.0  0.21124004879675412  0.6374001267455073  0.5024000555392912  1.0000
  C   C41       1.0  0.1683724724810925  0.2050316658988061  0.6644274358930617  1.0000
  C   C42       1.0  0.19002360562844428  0.2020105457383246  0.5326710728928045  1.0000
  C   C43       1.0  0.1962980222133296  0.13957651894935888  0.4690823053249894  1.0000
  C   C44       1.0  0.20808292331737843  0.2530500692947416  0.4662390502856115  1.0000
  C   C45       1.0  0.17282477730701779  0.2616212234538349  0.7315789962165363  1.0000
  C   C46       1.0  0.19235727056468546  0.3158361389973695  0.6667244396990657  1.0000
  C   C47       1.0  0.20858379103680744  0.31276490236148197  0.53500003319203  1.0000
  C   C48       1.0  0.2158104678426633  0.3705095304555172  0.4527212398125455  1.0000
  C   C49       1.0  0.6788229677138083  0.8063044339549469  0.18013182872349323  1.0000
  C   C50       1.0  0.6951283305249235  0.8041346783598609  0.049031431625600023  1.0000
  C   C51       1.0  0.7010011570889424  0.864872941501492  0.9818178316316871  1.0000
  C   C52       1.0  0.709013639634086  0.7469137592992972  0.990185206403696  1.0000
  C   C53       1.0  0.6774482811756705  0.7511126772424904  0.25503636361663523  1.0000
  C   C54       1.0  0.6888982529100751  0.6925158860721091  0.19541278187227348  1.0000
  C   C55       1.0  0.7035646777538344  0.6907790335242366  0.059882162330645444  1.0000
  C   C56       1.0  0.7127506743903093  0.6311180524183273  0.9883703814363771  1.0000
  C   C57       1.0  0.6676521171793853  0.18579461534270894  0.8399567646274663  1.0000
  C   C58       1.0  0.6926327568316752  0.1892657619483401  0.9665731710748072  1.0000
  C   C59       1.0  0.6966523202803601  0.13310850733935553  0.04459616352209352  1.0000
  C   C60       1.0  0.7075095665020003  0.24635051374415232  0.022802512630006055  1.0000
  C   C61       1.0  0.6664523592788894  0.240998925038922  0.7593785734033667  1.0000
  C   C62       1.0  0.6791012393169156  0.2969819705153774  0.8149612844277001  1.0000
  C   C63       1.0  0.6952248047104269  0.2997334844916694  0.9462350516006297  1.0000
  C   C64       1.0  0.7062314283191963  0.36071430859124926  0.019343275941850605  1.0000
  C   C65       1.0  0.30221335980188574  0.8097717420427238  0.17092321095574364  1.0000
  C   C66       1.0  0.28907869930957736  0.8100305274570614  0.03586862137132986  1.0000
  C   C67       1.0  0.2850872151426839  0.8690079760090962  0.9618001548070777  1.0000
  C   C68       1.0  0.279766710965993  0.7516315540103445  0.9741682896853339  1.0000
  C   C69       1.0  0.3155982684852179  0.7548372907996588  0.23627079773661364  1.0000
  C   C70       1.0  0.31556348451356553  0.6988878675778345  0.16568211667504798  1.0000
  C   C71       1.0  0.2900112149751112  0.6966314041968151  0.03836147375899341  1.0000
  C   C72       1.0  0.29117916024343965  0.6369766856886412  0.9683940710514832  1.0000
  C   C73       1.0  0.334306166223959  0.1965049325947323  0.8140003792996475  1.0000
  C   C74       1.0  0.3165062387478912  0.19488745624383408  0.943055163282746  1.0000
  C   C75       1.0  0.3052405897228287  0.1341645119322177  0.008169404311081185  1.0000
  C   C76       1.0  0.30193776359821045  0.24944025328878341  0.003414342855006863  1.0000
  C   C77       1.0  0.34603763401393317  0.2525831129078123  0.7475999020290428  1.0000
  C   C78       1.0  0.3389845566907488  0.30701375711582984  0.8121648137643825  1.0000
  C   C79       1.0  0.3105625755959281  0.3054175133413134  0.9328552643681567  1.0000
  C   C80       1.0  0.30034614221085537  0.3658759232796263  0.0034235088291249298  1.0000
  C   C81       1.0  0.832288437386926  0.8030086662672498  0.32398070877348106  1.0000
  C   C82       1.0  0.8029249854743356  0.803020317656125  0.44951372429610836  1.0000
  C   C83       1.0  0.7919581567300452  0.8652554886986009  0.5182557794173731  1.0000
  C   C84       1.0  0.7864324007416212  0.7486750775203241  0.5088770672196322  1.0000
  C   C85       1.0  0.8484468556180635  0.74699393488264  0.26803163872085617  1.0000
  C   C86       1.0  0.837547031509031  0.6928515132240998  0.33758631819778107  1.0000
  C   C87       1.0  0.8078451978620425  0.6895790060452618  0.459722690040663  1.0000
  C   C88       1.0  0.7961101764937913  0.6291556767822406  0.5301479893145767  1.0000
  C   C89       1.0  0.8219108092677745  0.1940584533863283  0.683921386646992  1.0000
  C   C90       1.0  0.7945724043311878  0.1920617456748154  0.5607538417438261  1.0000
  C   C91       1.0  0.7874553969545967  0.13432882814651934  0.48592071008066434  1.0000
  C   C92       1.0  0.7893669609954769  0.2471655678739475  0.4850541192298812  1.0000
  C   C93       1.0  0.8427983666038605  0.24914118933638427  0.736672592186045  1.0000
  C   C94       1.0  0.8367463994902344  0.3040197732545401  0.6598721450446879  1.0000
  C   C95       1.0  0.8074618882375302  0.3022228140167721  0.5391684713325466  1.0000
  C   C96       1.0  0.7941187309884882  0.3630635019657012  0.4649326744414411  1.0000
  C   C97       1.0  0.06469735958372214  0.4224955269883378  0.061824836598886636  1.0000
  C   C98       1.0  0.06200910946282848  0.44938832812341767  0.18582457613585626  1.0000
  C   C99       1.0  0.11886445634412002  0.46193953154841616  0.25962328630973064  1.0000
  C   C100      1.0  0.005404904113323283  0.45748071188690775  0.2568030278537736  1.0000
  C   C101      1.0  0.007861100300446955  0.40528652097486645  0.005577431098744887  1.0000
  C   C102      1.0  0.9511845166682839  0.41389405524586165  0.07518519740943781  1.0000
  C   C103      1.0  0.9501234034841484  0.43845802430695496  0.20107326077893434  1.0000
  C   C104      1.0  0.8904846554357798  0.44833561955819523  0.267845042621448  1.0000
  C   C105      1.0  0.06021730088653894  0.5686698151919222  0.9142698395256008  1.0000
  C   C106      1.0  0.05820943964951175  0.5456880834653464  0.7909409326538939  1.0000
  C   C107      1.0  0.12062538110421518  0.5437567753667626  0.7177139790326785  1.0000
  C   C108      1.0  0.0035775798359215056  0.5312818847683762  0.7286009391495271  1.0000
  C   C109      1.0  0.006170329322679837  0.5782574654789243  0.9805009183192861  1.0000
  C   C110      1.0  0.9487729735331462  0.5678691534380924  0.9253515138983617  1.0000
  C   C111      1.0  0.9490522326612699  0.5444110794419131  0.798380553380912  1.0000
  C   C112      1.0  0.8881657316796185  0.5352713860719348  0.7385801334601718  1.0000
  C   C113      1.0  0.5589672975645815  0.4320182604473886  0.43593228077303026  1.0000
  C   C114      1.0  0.5605453762271755  0.4484229028431908  0.30116957351819384  1.0000
  C   C115      1.0  0.6225858761718279  0.4604322139122737  0.24040919908686542  1.0000
  C   C116      1.0  0.5071213898550901  0.4538271858858666  0.22872844519936092  1.0000
  C   C117      1.0  0.49920541462200374  0.43141225361995067  0.49589545651245814  1.0000
  C   C118      1.0  0.4463649218225327  0.4398025560345454  0.4234399056354106  1.0000
  C   C119      1.0  0.4485867580132362  0.4525455447632149  0.28996850820153885  1.0000
  C   C120      1.0  0.39416570973378207  0.45751424452330514  0.20885696323193087  1.0000
  C   C121      1.0  0.5600255766690487  0.5782228585221016  0.5620226915261962  1.0000
  C   C122      1.0  0.5623157684072131  0.5519109690705762  0.6860040456548474  1.0000
  C   C123      1.0  0.6233233815552823  0.5434209114544647  0.7605193289404372  1.0000
  C   C124      1.0  0.5074941907891817  0.5480089756139263  0.7587014275883799  1.0000
  C   C125      1.0  0.5043887896768983  0.5901303362968591  0.5005807049330017  1.0000
  C   C126      1.0  0.4506049365701371  0.583548546153744  0.5713607808653669  1.0000
  C   C127      1.0  0.45196229262911386  0.562317202179838  0.697950581687728  1.0000
  C   C128      1.0  0.39112738670713937  0.5509295486617964  0.761005540613334  1.0000
  O   O1        1.0  0.7406534119658067  0.9941608007333339  0.8784914014251775  1.0000
  O   O2        1.0  0.6105505021150198  0.9840198591216254  0.8750584739015451  1.0000
  O   O3        1.0  0.6639008181881966  0.9351004295290285  0.7216024787980146  1.0000
  O   O4        1.0  0.39113134545143985  0.9879636214165973  0.878865702677702  1.0000
  O   O5        1.0  0.33803840130658247  0.9427314068505137  0.714863275545828  1.0000
  O   O6        1.0  0.732077364001968  0.011238593229614862  0.14113005675426826  1.0000
  O   O7        1.0  0.6060779480745342  0.0129218832901151  0.13975627552227543  1.0000
  O   O8        1.0  0.6693872478695103  0.08732085210057862  0.9927160504418769  1.0000
  O   O9        1.0  0.6784179417738048  0.9122243007878801  0.04037372195039716  1.0000
  O   O10       1.0  0.6541442436338735  0.07121260353041287  0.3027769111579264  1.0000
  O   O11       1.0  0.38510628861032986  0.0162641275936239  0.1263329095746794  1.0000
  O   O12       1.0  0.3318352013428082  0.06762565895845173  0.2825145815564858  1.0000
  O   O13       1.0  0.23495030985165336  0.010534388612239542  0.6277619482543434  1.0000
  O   O14       1.0  0.10840610829131238  0.9958841880898929  0.6219928928924455  1.0000
  O   O15       1.0  0.1634681413577268  0.9529602522950776  0.7914193391547687  1.0000
  O   O16       1.0  0.8842482639428874  0.9773545288633597  0.6210914693960107  1.0000
  O   O17       1.0  0.8391726697657277  0.9187655942775116  0.7743060261316611  1.0000
  O   O18       1.0  0.23043245233407433  0.008088321227004893  0.36690455441175496  1.0000
  O   O19       1.0  0.10769119058629925  0.021315424899443117  0.36828622829590457  1.0000
  O   O20       1.0  0.16740004987106202  0.09569390308927438  0.5268043537364782  1.0000
  O   O21       1.0  0.16699775368764336  0.9218061382727799  0.47600966765499164  1.0000
  O   O22       1.0  0.15470253631941866  0.06847082132779644  0.20007256190958875  1.0000
  O   O23       1.0  0.8798141760028578  0.004230208659385339  0.37073797765625843  1.0000
  O   O24       1.0  0.8278904690241149  0.06928958868192694  0.2375305680529989  1.0000
  O   O25       1.0  0.23685761105203593  0.8813631031883287  0.615291923319149  1.0000
  O   O26       1.0  0.2401104240264547  0.6338069278909227  0.6097098421652418  1.0000
  O   O27       1.0  0.18697834437943067  0.5919574036732865  0.44016757803652784  1.0000
  O   O28       1.0  0.26046320771229037  0.005376375881871898  0.8701178311156256  1.0000
  O   O29       1.0  0.25071936508664155  0.8770755842627171  0.8609678347581688  1.0000
  O   O30       1.0  0.22714931725597076  0.13486411385358935  0.36541772551763835  1.0000
  O   O31       1.0  0.24786618721349532  0.371140419888579  0.35549984214542885  1.0000
  O   O32       1.0  0.18448419050256334  0.4153873607871385  0.5053780931662706  1.0000
  O   O33       1.0  0.25923663322209434  0.008433739041784696  0.117730688548944  1.0000
  O   O34       1.0  0.26818194816439406  0.13323860601010043  0.1026576883164672  1.0000
  O   O35       1.0  0.735345264647694  0.8665096901283156  0.8785058706394638  1.0000
  O   O36       1.0  0.7498979754484761  0.6326415461313061  0.8893912551418856  1.0000
  O   O37       1.0  0.6903859061781931  0.5806292393715021  0.03657509830349446  1.0000
  O   O38       1.0  0.7642507788880701  0.9959021621843699  0.6308593107291152  1.0000
  O   O39       1.0  0.7552310791677501  0.865721955728515  0.6182140261479737  1.0000
  O   O40       1.0  0.7332432048097631  0.13268013379441554  0.14663464994882316  1.0000
  O   O41       1.0  0.7466213200551861  0.3601567921016315  0.11089359502597998  1.0000
  O   O42       1.0  0.6792991927732144  0.40847718733612215  0.9720296812993013  1.0000
  O   O43       1.0  0.7504856492928003  0.005575383229973699  0.3868306346752811  1.0000
  O   O44       1.0  0.7485517759424681  0.13337927896154542  0.39039414865605165  1.0000
  O   O45       1.0  0.3216317071972966  0.9112129323947347  0.004809460491863477  1.0000
  O   O46       1.0  0.2547968675725551  0.628367044348033  0.8744348562090061  1.0000
  O   O47       1.0  0.32726936519303895  0.5949685165012217  0.01134895048443797  1.0000
  O   O48       1.0  0.33747300771832556  0.0875053720416291  0.9699846698534333  1.0000
  O   O49       1.0  0.25909542461086454  0.37261052886355195  0.10021541402670751  1.0000
  O   O50       1.0  0.33266738465464485  0.4124849106407214  0.965477504743186  1.0000
  O   O51       1.0  0.8139600734931404  0.916573831974887  0.4776590968475566  1.0000
  O   O52       1.0  0.764700189375445  0.628577552427812  0.6337753667366262  1.0000
  O   O53       1.0  0.8285744198600534  0.5847270824909125  0.4782672956803464  1.0000
  O   O54       1.0  0.8234504612794332  0.08630807294234731  0.5179286960535766  1.0000
  O   O55       1.0  0.7586149701367086  0.3595394600574719  0.37067745695504023  1.0000
  O   O56       1.0  0.8268981329370696  0.40644867228827675  0.5095130351631941  1.0000
  O   O57       1.0  0.2540426286671207  0.5028015586898528  0.3553906163931918  1.0000
  O   O58       1.0  0.11646594074838454  0.4980557937469729  0.36134816908942624  1.0000
  O   O59       1.0  0.168258495435879  0.4395617122693237  0.2079663969922192  1.0000
  O   O60       1.0  0.8937613189768477  0.483330779718374  0.3690794456696728  1.0000
  O   O61       1.0  0.8423616509745354  0.420934477911158  0.2258883491648487  1.0000
  O   O62       1.0  0.2461064665014673  0.5140217222236195  0.6008457775441968  1.0000
  O   O63       1.0  0.11947522506455248  0.5193550826213491  0.606757287501513  1.0000
  O   O64       1.0  0.16347523374446848  0.5700133505501073  0.7772660690949239  1.0000
  O   O65       1.0  0.8847964140914404  0.5000166300218638  0.6357824983121488  1.0000
  O   O66       1.0  0.843158512451417  0.5637690623382009  0.7815445280849022  1.0000
  O   O67       1.0  0.7523410086673148  0.4856259018434061  0.11271997320309388  1.0000
  O   O68       1.0  0.6249842893914218  0.4924999957121475  0.13874251003680377  1.0000
  O   O69       1.0  0.6660255730449653  0.4283732837884055  0.2913487007554068  1.0000
  O   O70       1.0  0.39488912734484904  0.49200089221655297  0.10847690964763411  1.0000
  O   O71       1.0  0.3454001114996002  0.42837537357065825  0.2497844674833018  1.0000
  O   O72       1.0  0.7506850827883658  0.4951583164135661  0.8700618175853497  1.0000
  O   O73       1.0  0.6229839946846236  0.5106652968984838  0.8706216758676821  1.0000
  O   O74       1.0  0.6688907155267305  0.5686052428095196  0.7104931218226151  1.0000
  O   O75       1.0  0.3903522587685722  0.5158385728515263  0.8575392452772183  1.0000
  O   O76       1.0  0.3424719783795438  0.5789642422724147  0.7094609612088101  1.0000
  O   O77       1.0  0.7624363013212095  0.48820113963304096  0.35682799373913976  1.0000
  O   O78       1.0  0.7566307787732541  0.5053061945498772  0.6111841895881336  1.0000
  O   O79       1.0  0.2645508215474617  0.5015113410468073  0.11409866304264726  1.0000
  O   O80       1.0  0.261752879497339  0.5122398491991002  0.8633020623335075  1.0000
