data_image0
_chemical_formula_structural       Al16H80C128O80
_chemical_formula_sum              "Al16 H80 C128 O80"
_cell_length_a       21.63717
_cell_length_b       21.63649
_cell_length_c       10.288049999999998
_cell_angle_alpha    90.00093999999999
_cell_angle_beta     89.99906
_cell_angle_gamma    90.00852000000002

_space_group_name_H-M_alt    "P 1"
_space_group_IT_number       1

loop_
  _space_group_symop_operation_xyz
  'x, y, z'

loop_
  _atom_site_type_symbol
  _atom_site_label
  _atom_site_symmetry_multiplicity
  _atom_site_fract_x
  _atom_site_fract_y
  _atom_site_fract_z
  _atom_site_occupancy
  Al  Al1       1.0  0.6723892359738369  0.9846300273141361  0.006898146881002623  1.0000
  Al  Al2       1.0  0.32022208586859546  0.0061060064176483575  0.0019916757797166997  1.0000
  Al  Al3       1.0  0.7476884425022435  0.9300283992819697  0.746545904429603  1.0000
  Al  Al4       1.0  0.2513846332135464  0.9397136798814099  0.7479948126293114  1.0000
  Al  Al5       1.0  0.7450578164332672  0.05777451688780273  0.2433199868462619  1.0000
  Al  Al6       1.0  0.24704335922806664  0.07531978541635535  0.24801814150268445  1.0000
  Al  Al7       1.0  0.1799044545000704  0.011996428804884092  0.49477481168636356  1.0000
  Al  Al8       1.0  0.8225303826641804  0.0016659739138763416  0.5056097774991268  1.0000
  Al  Al9       1.0  0.2471077959908742  0.5778836824553402  0.7528866026199845  1.0000
  Al  Al10      1.0  0.18335471855112692  0.50747128792534  0.5019214925461755  1.0000
  Al  Al11      1.0  0.2526420180675724  0.439469360288975  0.2543473360553474  1.0000
  Al  Al12      1.0  0.7482049749876398  0.5654831036800305  0.7418313657159445  1.0000
  Al  Al13      1.0  0.6812903442704255  0.4997801264914487  0.9998191260734055  1.0000
  Al  Al14      1.0  0.7554154631447375  0.425689208721413  0.2362253634706326  1.0000
  Al  Al15      1.0  0.3202891980950095  0.5077983382966516  0.0033010969045776228  1.0000
  Al  Al16      1.0  0.8260057568836384  0.49591559804152624  0.4862434622057894  1.0000
  H   H1        1.0  0.7392247088027643  0.4724555775132502  0.6458535137162229  1.0000
  H   H2        1.0  0.7288543219684211  0.49482482017629137  0.3929514466869788  1.0000
  H   H3        1.0  0.2218548407058881  0.023588194368311995  0.9096613189592389  1.0000
  H   H4        1.0  0.2840683402899411  0.5048820274477425  0.5924171141897868  1.0000
  H   H5        1.0  0.2516729791608499  0.5396245961999145  0.3254907354553285  1.0000
  H   H6        1.0  0.7729615807186951  0.4751472960815751  0.8910587946663451  1.0000
  H   H7        1.0  0.7709257151038704  0.524749280976989  0.1361378026328534  1.0000
  H   H8        1.0  0.2554872987892906  0.4811979877281027  0.8239692295703598  1.0000
  H   H9        1.0  0.723730697390294  0.9975986127284141  0.4355828462348071  1.0000
  H   H10       1.0  0.753526188117755  0.9581296236246317  0.17101670680775244  1.0000
  H   H11       1.0  0.7749506896041437  0.991689428069295  0.9382791376983812  1.0000
  H   H12       1.0  0.7368061615922538  0.026546251431461932  0.6754929138048756  1.0000
  H   H13       1.0  0.23330739348526594  0.9786144383888881  0.1474029170161612  1.0000
  H   H14       1.0  0.24960015304042396  0.04225628671994696  0.6641020593638942  1.0000
  H   H15       1.0  0.2769460110448631  0.009292900946257232  0.42199732322144545  1.0000
  H   H16       1.0  0.2270994433714706  0.5072350126783897  0.07281351278440523  1.0000
  H   H17       1.0  0.5961591903159899  0.897908400825281  0.5343666021723757  1.0000
  H   H18       1.0  0.3975587289917023  0.9264398556678548  0.5351995024792664  1.0000
  H   H19       1.0  0.5033112278659723  0.98343481762813  0.858323131436614  1.0000
  H   H20       1.0  0.4920864320624308  0.8854074929672469  0.42560449173345577  1.0000
  H   H21       1.0  0.5997487227753374  0.09319060851400998  0.4656681461782656  1.0000
  H   H22       1.0  0.40357307179960955  0.07446449007230808  0.4939925759855101  1.0000
  H   H23       1.0  0.4942962225330701  0.0377203718984339  0.13966654423206512  1.0000
  H   H24       1.0  0.4987945261817122  0.10887917447797481  0.5976107028693112  1.0000
  H   H25       1.0  0.10250606080078238  0.9115929095015175  0.968895798784279  1.0000
  H   H26       1.0  0.9046949200230305  0.9022121637096265  0.9551469697993823  1.0000
  H   H27       1.0  0.004667623842103952  0.9685543488292463  0.6272824433917767  1.0000
  H   H28       1.0  0.00830146214104066  0.8868064965912036  0.07456251867034498  1.0000
  H   H29       1.0  0.10138046279985066  0.07477863836584007  0.01874435486335096  1.0000
  H   H30       1.0  0.9007922844157953  0.06827145203785331  0.014120335733117087  1.0000
  H   H31       1.0  0.9973661893011319  0.018416948390523546  0.3616656053383635  1.0000
  H   H32       1.0  0.9956593426163975  0.08217422908028083  0.8847751549078489  1.0000
  H   H33       1.0  0.16428145891239299  0.8553247258240946  0.2723512367021995  1.0000
  H   H34       1.0  0.18712175696799999  0.6592727171734654  0.27272009766234473  1.0000
  H   H35       1.0  0.2387799696799193  0.7599686643177328  0.6112410040476431  1.0000
  H   H36       1.0  0.1584646769771615  0.7532763912090729  0.16280617516932408  1.0000
  H   H37       1.0  0.1356567341966232  0.1625222561344484  0.691156832627526  1.0000
  H   H38       1.0  0.15758176820452247  0.36091457366260715  0.7169732234957157  1.0000
  H   H39       1.0  0.2313252459839571  0.25795080615071453  0.38845362251111915  1.0000
  H   H40       1.0  0.1279655850548549  0.26181747654100396  0.8245972445976718  1.0000
  H   H41       1.0  0.6732500310415901  0.8404991154017755  0.2128110439382793  1.0000
  H   H42       1.0  0.6639254771293521  0.6407735487847348  0.21750952713120786  1.0000
  H   H43       1.0  0.7279726570755081  0.7382351355911949  0.8731977238074893  1.0000
  H   H44       1.0  0.641777592883977  0.7401470987875731  0.33463999892365653  1.0000
  H   H45       1.0  0.6615050860438006  0.1355257155636557  0.7743295514838965  1.0000
  H   H46       1.0  0.6617042429607812  0.33508469741485725  0.7583158161264344  1.0000
  H   H47       1.0  0.7109919635347308  0.2408194189985346  0.12374471550416401  1.0000
  H   H48       1.0  0.6594303652427811  0.2403886600671466  0.6418648151765537  1.0000
  H   H49       1.0  0.3553756515047915  0.8536739007192101  0.19247242291132938  1.0000
  H   H50       1.0  0.3329629488192577  0.6545388499161559  0.21909154607594278  1.0000
  H   H51       1.0  0.2543821202343747  0.7581638356075704  0.896389311140775  1.0000
  H   H52       1.0  0.3665856575016373  0.7543998744952879  0.3178450834589669  1.0000
  H   H53       1.0  0.33554890278090965  0.15566440297646628  0.767479670309236  1.0000
  H   H54       1.0  0.310874627624412  0.3552473150060902  0.7590213278611123  1.0000
  H   H55       1.0  0.26867046600747563  0.2542553482441406  0.11311166550640543  1.0000
  H   H56       1.0  0.3506794417046705  0.24747465275843722  0.6556612576547881  1.0000
  H   H57       1.0  0.8425467870323493  0.8500328615992594  0.2916914382033147  1.0000
  H   H58       1.0  0.8327117315859175  0.6512419884840885  0.2713628025477449  1.0000
  H   H59       1.0  0.7691772609007559  0.7528194052932818  0.6127242812482891  1.0000
  H   H60       1.0  0.858573561890992  0.7512040883778572  0.17039682937697437  1.0000
  H   H61       1.0  0.8426588628393248  0.1509847714906826  0.6896851708447709  1.0000
  H   H62       1.0  0.8606993661492919  0.3489741500661621  0.6833584500359182  1.0000
  H   H63       1.0  0.780749431091558  0.24213527954031203  0.37085739873219903  1.0000
  H   H64       1.0  0.8709678433930568  0.25173081143360193  0.8058351788950415  1.0000
  H   H65       1.0  0.10287923842324653  0.42977718531404635  0.0124996768128662  1.0000
  H   H66       1.0  0.9065169664304162  0.4073619468303722  0.014822849815177832  1.0000
  H   H67       1.0  0.9978577770436533  0.48651595669197256  0.34489726342260424  1.0000
  H   H68       1.0  0.010933543841110227  0.39320076476383464  0.9104601953257234  1.0000
  H   H69       1.0  0.09748186052383766  0.5973670273578925  0.9579835209444343  1.0000
  H   H70       1.0  0.8946323190708881  0.5858833737121845  0.9565346030247109  1.0000
  H   H71       1.0  0.00885373619200304  0.5149049463319256  0.6395357090771036  1.0000
  H   H72       1.0  0.0030029400087172205  0.600182299371185  0.09501536834123774  1.0000
  H   H73       1.0  0.6007352628542267  0.4100043141642  0.4504299445713341  1.0000
  H   H74       1.0  0.4015921623597604  0.4183267374292689  0.46841839136638325  1.0000
  H   H75       1.0  0.5006407913511741  0.49305085623043204  0.13321971125420734  1.0000
  H   H76       1.0  0.5101124672822608  0.38723785557770607  0.5769510278038515  1.0000
  H   H77       1.0  0.598273243447736  0.5933070832820647  0.5253115518931616  1.0000
  H   H78       1.0  0.39615204940292437  0.5922043266760002  0.5319954424281517  1.0000
  H   H79       1.0  0.5040176197185308  0.5159408482737736  0.8554719876330852  1.0000
  H   H80       1.0  0.495451937980588  0.6189894770114948  0.41947564029737516  1.0000
  C   C1        1.0  0.55334539648169  0.9131010609458048  0.5790161878687539  1.0000
  C   C2        1.0  0.5539731008856168  0.9442502578158376  0.7023803395147471  1.0000
  C   C3        1.0  0.6147627974977873  0.9521411961548906  0.7744143440344998  1.0000
  C   C4        1.0  0.4998266243043709  0.9631422516025612  0.7614585040030195  1.0000
  C   C5        1.0  0.49446391889131275  0.9045401458462022  0.5217644559896792  1.0000
  C   C6        1.0  0.44122732619956345  0.9254566792752689  0.5846423104104966  1.0000
  C   C7        1.0  0.444278454229096  0.9532364479027284  0.7054011889476682  1.0000
  C   C8        1.0  0.38756931362811564  0.9637271392717524  0.7850187510921406  1.0000
  C   C9        1.0  0.5539129619733549  0.0839747493903041  0.4298687352015383  1.0000
  C   C10       1.0  0.5530002880993293  0.06031985759661797  0.30357174011017685  1.0000
  C   C11       1.0  0.6119863141832297  0.04233503654802865  0.23479741356720546  1.0000
  C   C12       1.0  0.49669167550058474  0.04477165021476503  0.2408215989100721  1.0000
  C   C13       1.0  0.49771647065247965  0.0915407829329735  0.49847008630208095  1.0000
  C   C14       1.0  0.44488556340350904  0.0722857317344076  0.43804105843311536  1.0000
  C   C15       1.0  0.4425070413413707  0.05570897421039784  0.3081866865784364  1.0000
  C   C16       1.0  0.38089293343434655  0.043782638848405685  0.24636609665409076  1.0000
  C   C17       1.0  0.06041340561268959  0.921202980220934  0.9164947937206289  1.0000
  C   C18       1.0  0.057840707508040996  0.9463943400960033  0.7847112652225295  1.0000
  C   C19       1.0  0.11911938152531461  0.9596432309526308  0.7212570372419418  1.0000
  C   C20       1.0  0.00011727059494814895  0.9510219367563001  0.7249687600669937  1.0000
  C   C21       1.0  0.003914368427077042  0.907772601585989  0.9749807283887081  1.0000
  C   C22       1.0  0.9481651986909484  0.9151315083561508  0.9125315985562419  1.0000
  C   C23       1.0  0.9459549456611193  0.9394863611319351  0.789474647983421  1.0000
  C   C24       1.0  0.8842105221834081  0.9545565693379039  0.7313781554351876  1.0000
  C   C25       1.0  0.055145875059383134  0.0669463149300907  0.05852934231093855  1.0000
  C   C26       1.0  0.05326996252322363  0.047898228825867084  0.18906875263276116  1.0000
  C   C27       1.0  0.11091333828430754  0.0462417146309539  0.27064880912800293  1.0000
  C   C28       1.0  0.9988285113762907  0.03184528398055902  0.25669801281202215  1.0000
  C   C29       1.0  0.9969441572028941  0.07028538791223456  0.9894282589966737  1.0000
  C   C30       1.0  0.9454712748768159  0.06267624428292391  0.06581870521451913  1.0000
  C   C31       1.0  0.9440513698759695  0.03970642543929348  0.19446040508535695  1.0000
  C   C32       1.0  0.8846518473400744  0.027003470013040032  0.2610927805291472  1.0000
  C   C33       1.0  0.17573597152638618  0.812333628029772  0.3276527195053658  1.0000
  C   C34       1.0  0.20006759179491276  0.8145199256876847  0.4534922819441578  1.0000
  C   C35       1.0  0.20603658788059453  0.8747488200022927  0.5209551374111108  1.0000
  C   C36       1.0  0.21652566556591613  0.7593492561186678  0.5166154841228768  1.0000
  C   C37       1.0  0.17109299603309458  0.7577884483561605  0.26477404082727873  1.0000
  C   C38       1.0  0.18390403874952596  0.7031585795863285  0.3253549244901431  1.0000
  C   C39       1.0  0.20677274014657585  0.7040261495284821  0.45819418658235633  1.0000
  C   C40       1.0  0.21551207308051515  0.6439196214082336  0.5252104277734032  1.0000
  C   C41       1.0  0.1560202292688826  0.20476973309932725  0.6587606623047053  1.0000
  C   C42       1.0  0.18780190330023103  0.2023772877969718  0.5374754634248589  1.0000
  C   C43       1.0  0.20399050995524987  0.14067948082425424  0.4830861563986888  1.0000
  C   C44       1.0  0.20706111875410166  0.2571363983149549  0.48031810997515234  1.0000
  C   C45       1.0  0.14900372569803955  0.2603559804416538  0.7291644784015292  1.0000
  C   C46       1.0  0.1661832517146288  0.3162845166268901  0.6690234817922093  1.0000
  C   C47       1.0  0.19196808514613575  0.3164088121419676  0.5450535904772139  1.0000
  C   C48       1.0  0.20702469053110875  0.373813061031392  0.474263336717172  1.0000
  C   C49       1.0  0.6770998523689133  0.7945236586898686  0.16778662336055464  1.0000
  C   C50       1.0  0.6967530589587675  0.7964448405942094  0.03074481851129454  1.0000
  C   C51       1.0  0.7014921841436569  0.8557492415739096  0.9699071643980541  1.0000
  C   C52       1.0  0.7120483712861945  0.7392889750531132  0.9782970137886801  1.0000
  C   C53       1.0  0.6618888991490152  0.7401200506364766  0.23267935523682562  1.0000
  C   C54       1.0  0.6726532912166251  0.6852744789997393  0.1693406525501778  1.0000
  C   C55       1.0  0.6995183036648496  0.6856864218412032  0.046428063639712705  1.0000
  C   C56       1.0  0.7136523062006094  0.6257247467389428  0.9876408982007766  1.0000
  C   C57       1.0  0.667778311087018  0.18287264647014612  0.8178569983878787  1.0000
  C   C58       1.0  0.6874435101389756  0.18253097979246585  0.9504252071705971  1.0000
  C   C59       1.0  0.6977335294180368  0.12243188286702174  0.016236189564101403  1.0000
  C   C60       1.0  0.6987119458538014  0.24034607834385807  0.023009563528920158  1.0000
  C   C61       1.0  0.6616920035769065  0.23758622154792103  0.7483918363608348  1.0000
  C   C62       1.0  0.6682123485974436  0.29336945600163095  0.8160083983125372  1.0000
  C   C63       1.0  0.6879914816009944  0.29633704325548466  0.9516507980263368  1.0000
  C   C64       1.0  0.7018371169069454  0.3618498609341966  0.016716144463361112  1.0000
  C   C65       1.0  0.3340725448356082  0.8091980885477346  0.15766207691802842  1.0000
  C   C66       1.0  0.3022912880722546  0.8116165885066792  0.040630723034247994  1.0000
  C   C67       1.0  0.29518366283686065  0.8715727740433525  0.9775407392758139  1.0000
  C   C68       1.0  0.27910539476185087  0.7565041904239618  0.991517442347698  1.0000
  C   C69       1.0  0.33840489417142783  0.7566064500108999  0.22901298211362434  1.0000
  C   C70       1.0  0.32433451819677883  0.7001558182864203  0.16925238023421468  1.0000
  C   C71       1.0  0.29660859075005663  0.7006155068810103  0.04972029103062889  1.0000
  C   C72       1.0  0.2898662876524504  0.6424115466383761  0.9771240781980436  1.0000
  C   C73       1.0  0.3260530827197905  0.200412130688839  0.8231348994492669  1.0000
  C   C74       1.0  0.30614234747863867  0.1980025705849486  0.9529480827405044  1.0000
  C   C75       1.0  0.299423539792598  0.13738065032158037  0.027340413399594473  1.0000
  C   C76       1.0  0.2876471545511562  0.25481708880168336  0.011926469061972  1.0000
  C   C77       1.0  0.33240777274173433  0.25462584664450166  0.752266708665181  1.0000
  C   C78       1.0  0.31331908142934584  0.3097556627480406  0.8124204190540835  1.0000
  C   C79       1.0  0.2951708261870181  0.3094185191447973  0.9430536722324494  1.0000
  C   C80       1.0  0.2917469366410371  0.3721313015772674  0.014850790970214732  1.0000
  C   C81       1.0  0.8265117536899164  0.80795454616739  0.33186056550258103  1.0000
  C   C82       1.0  0.8039666239779583  0.8061276506241878  0.45649366899110166  1.0000
  C   C83       1.0  0.7948463176696187  0.8634552525192178  0.5327041928718181  1.0000
  C   C84       1.0  0.7869052794223217  0.7483503912473801  0.5158026935549607  1.0000
  C   C85       1.0  0.8365209604167243  0.7515984195971681  0.26481040631929137  1.0000
  C   C86       1.0  0.8199029166228781  0.6947800616630304  0.3229417101291435  1.0000
  C   C87       1.0  0.7972418542469256  0.692809852834407  0.4514475387707031  1.0000
  C   C88       1.0  0.7937595137086739  0.6323338695803332  0.5240798665880346  1.0000
  C   C89       1.0  0.8373843795133601  0.19447139696922935  0.6475363574042551  1.0000
  C   C90       1.0  0.8139372512596419  0.1936031812656419  0.5212032505132718  1.0000
  C   C91       1.0  0.8035585108213701  0.13160221838588665  0.45940895128542086  1.0000
  C   C92       1.0  0.8023101600103136  0.2479130106526037  0.4595627034542406  1.0000
  C   C93       1.0  0.8544858701806644  0.24891299681213258  0.7073103816523387  1.0000
  C   C94       1.0  0.8496345401350958  0.3043690616264984  0.6358399251326017  1.0000
  C   C95       1.0  0.8194376966883578  0.3039985041027222  0.5147574896530653  1.0000
  C   C96       1.0  0.8038969866713357  0.36394146436219027  0.45826292361222987  1.0000
  C   C97       1.0  0.06105037640919006  0.43456180343583567  0.06382059284088834  1.0000
  C   C98       1.0  0.05920346941539655  0.4568473263562756  0.19713574297809724  1.0000
  C   C99       1.0  0.1179192044880308  0.4683597902353267  0.26923057049153376  1.0000
  C   C100      1.0  0.0018720179423812322  0.464551917126018  0.24672818081979786  1.0000
  C   C101      1.0  0.005847218502764484  0.4160501622276019  0.0015703209067168004  1.0000
  C   C102      1.0  0.9488109489199951  0.42161569191324827  0.06346861457474709  1.0000
  C   C103      1.0  0.9469638098164775  0.4441432176284237  0.18979752241926273  1.0000
  C   C104      1.0  0.888767350851775  0.4503082624691607  0.2616122560372793  1.0000
  C   C105      1.0  0.0553021006679725  0.5803254125589921  0.9235319475077397  1.0000
  C   C106      1.0  0.054559414603846855  0.5588308155232414  0.7956671217774971  1.0000
  C   C107      1.0  0.11382448751748661  0.5525372736319641  0.7244738664767245  1.0000
  C   C108      1.0  0.002017587599861636  0.5388795331634428  0.7328181649611897  1.0000
  C   C109      1.0  0.998698536948407  0.5884228046733888  0.9915069505635378  1.0000
  C   C110      1.0  0.944668344792964  0.5747700909057382  0.9249536659095686  1.0000
  C   C111      1.0  0.9463799900029425  0.5483582436645351  0.7968297677602848  1.0000
  C   C112      1.0  0.8886615769141859  0.5357984918343055  0.7322305288200719  1.0000
  C   C113      1.0  0.5558593273580883  0.4240676140189226  0.412822518469777  1.0000
  C   C114      1.0  0.5567996411221594  0.4525434078720417  0.28721418546714056  1.0000
  C   C115      1.0  0.6194155153340387  0.4624801933362312  0.22930381176558026  1.0000
  C   C116      1.0  0.5002719751603458  0.46830711221508364  0.22747080745426032  1.0000
  C   C117      1.0  0.5026459122610909  0.41138221264492125  0.4839468617804067  1.0000
  C   C118      1.0  0.44735481221866463  0.42664854993065104  0.42439758663449706  1.0000
  C   C119      1.0  0.446507409529888  0.4581394597371039  0.30498409716558683  1.0000
  C   C120      1.0  0.3853135969873228  0.4667077878874701  0.23710310026258347  1.0000
  C   C121      1.0  0.5543570053937676  0.5783160755909847  0.5659937151906413  1.0000
  C   C122      1.0  0.5540228945109454  0.5472922171722151  0.6903998524415729  1.0000
  C   C123      1.0  0.6126086267103953  0.5453590519812329  0.7676753536506411  1.0000
  C   C124      1.0  0.49947336239772305  0.5359525729556597  0.7570857317077734  1.0000
  C   C125      1.0  0.49727087070862896  0.5900876521645019  0.5094998373268658  1.0000
  C   C126      1.0  0.4410421108444155  0.5804209299017717  0.5776002830078794  1.0000
  C   C127      1.0  0.4429111634439866  0.5516080933034714  0.6994049962759178  1.0000
  C   C128      1.0  0.3845565366720563  0.5479964260184238  0.7726904216191954  1.0000
  O   O1        1.0  0.7387372787758951  0.9825438896936882  0.8862730208789656  1.0000
  O   O2        1.0  0.6126185746378031  0.9770219697360548  0.8889121089478713  1.0000
  O   O3        1.0  0.6650825645384586  0.935763132017688  0.7170138191382439  1.0000
  O   O4        1.0  0.3858914305322674  9.901569847392544e-05  0.8816751262329705  1.0000
  O   O5        1.0  0.339952778844958  0.9360052259795703  0.7368259497222568  1.0000
  O   O6        1.0  0.7371241357055885  0.9967754416741804  0.12637233103939907  1.0000
  O   O7        1.0  0.6073726793286395  0.013453578629594839  0.12595437331163167  1.0000
  O   O8        1.0  0.6737123983408307  0.07499697614419557  0.9608015476849538  1.0000
  O   O9        1.0  0.6733614460142554  0.9002941638701271  0.028847015720167506  1.0000
  O   O10       1.0  0.6615062386195639  0.059466116352255974  0.2818624686680565  1.0000
  O   O11       1.0  0.3863625704048782  0.01133039120201886  0.1425278269832106  1.0000
  O   O12       1.0  0.3354214132106509  0.07202053838989755  0.29782504272671634  1.0000
  O   O13       1.0  0.2457054818437742  0.001881297604215737  0.6217475820706009  1.0000
  O   O14       1.0  0.11881173104354403  0.9987493496924925  0.6307607488053032  1.0000
  O   O15       1.0  0.16451179584807565  0.9290006538516975  0.7667313059445535  1.0000
  O   O16       1.0  0.8873304262780369  0.9927089340392811  0.6343075764363723  1.0000
  O   O17       1.0  0.8382126720938307  0.9279566602118259  0.778121931965183  1.0000
  O   O18       1.0  0.23921919347066337  0.013363678384201098  0.3688665890058163  1.0000
  O   O19       1.0  0.10904837338783528  0.019139867524198335  0.3785677510362166  1.0000
  O   O20       1.0  0.1781845649183291  0.09478669009459027  0.5414127080932752  1.0000
  O   O21       1.0  0.17263291017760307  0.9176489082711499  0.47527274957993954  1.0000
  O   O22       1.0  0.16037063866092519  0.0697183235533284  0.2252508522629319  1.0000
  O   O23       1.0  0.8825572970312063  0.9982805088740406  0.3690285526432838  1.0000
  O   O24       1.0  0.8389072468757618  0.055061100304003525  0.20841790529566348  1.0000
  O   O25       1.0  0.24285509976937075  0.8767866220462558  0.6190405783130865  1.0000
  O   O26       1.0  0.24663118932095932  0.6464523847400143  0.6307906757593987  1.0000
  O   O27       1.0  0.1891688186015439  0.5972715135405386  0.46851365723311833  1.0000
  O   O28       1.0  0.2569679195483293  0.008466108825624818  0.8652897256910439  1.0000
  O   O29       1.0  0.2616659822432124  0.8747389688895214  0.8789541684219631  1.0000
  O   O30       1.0  0.23413282173466224  0.1388475618772222  0.3785864533170231  1.0000
  O   O31       1.0  0.24106905696894332  0.3706206484198288  0.3701355058562897  1.0000
  O   O32       1.0  0.176667920348673  0.42353994227534886  0.5145383130354744  1.0000
  O   O33       1.0  0.25153083174949414  0.017465235215478436  0.11023186709874089  1.0000
  O   O34       1.0  0.2685848979214416  0.1388381997627251  0.13419858577393756  1.0000
  O   O35       1.0  0.7348297586975976  0.8607122338886432  0.8691875897188035  1.0000
  O   O36       1.0  0.7425481697138945  0.6270082137546703  0.8815204720467612  1.0000
  O   O37       1.0  0.6882961288510493  0.5802213199104392  0.04039562017212631  1.0000
  O   O38       1.0  0.7588200160877966  0.992990754655068  0.630923322859711  1.0000
  O   O39       1.0  0.7557162455821171  0.8592659024772301  0.6276352050911247  1.0000
  O   O40       1.0  0.7335519476369678  0.12033290144771941  0.1202291017571727  1.0000
  O   O41       1.0  0.7384591397152732  0.3607423606279188  0.11745565100531216  1.0000
  O   O42       1.0  0.6798070188531479  0.4099918380264885  0.9659510084685095  1.0000
  O   O43       1.0  0.759436408168897  0.002124444325309303  0.37993169755706124  1.0000
  O   O44       1.0  0.7680384781671815  0.1271020978828105  0.3592606695141151  1.0000
  O   O45       1.0  0.32487548173333086  0.918291071826621  0.03337841574374303  1.0000
  O   O46       1.0  0.25380866507566974  0.6391284641289947  0.8826648210733669  1.0000
  O   O47       1.0  0.3203989185224274  0.5957031447199259  0.02098343904414318  1.0000
  O   O48       1.0  0.33142123192639134  0.09169818160247187  0.9853384686824157  1.0000
  O   O49       1.0  0.2660034994659336  0.37435583020915464  0.12453784831380198  1.0000
  O   O50       1.0  0.3178287771393656  0.41749800721027  0.9600414162701469  1.0000
  O   O51       1.0  0.828701528556199  0.9076300459110739  0.5052981266031005  1.0000
  O   O52       1.0  0.7624461781046356  0.6328379668255988  0.6326050438860139  1.0000
  O   O53       1.0  0.8247312615576778  0.5883690529864811  0.4714964226753798  1.0000
  O   O54       1.0  0.8294325300805737  0.08645216350798568  0.5157602413895729  1.0000
  O   O55       1.0  0.7611150084985023  0.3651399287656822  0.3704040582059326  1.0000
  O   O56       1.0  0.8302709722570603  0.4100007193832986  0.5083907495985723  1.0000
  O   O57       1.0  0.24811206484309056  0.5018287538124706  0.3765875633421946  1.0000
  O   O58       1.0  0.11613899683527795  0.4983958948909501  0.37518377447998197  1.0000
  O   O59       1.0  0.1653416410287782  0.44003206387053273  0.22282524585484526  1.0000
  O   O60       1.0  0.8872455118161826  0.4907012877447222  0.3523780416090159  1.0000
  O   O61       1.0  0.8446600803303862  0.4196890164750304  0.21668240440121625  1.0000
  O   O62       1.0  0.2447691815836155  0.5149695867016499  0.628044338989301  1.0000
  O   O63       1.0  0.1145573288428572  0.5165977478616836  0.6252135294570925  1.0000
  O   O64       1.0  0.16013578397227593  0.5872272378591645  0.7660461352852063  1.0000
  O   O65       1.0  0.8901104102760117  0.5072431147093438  0.6218690696217243  1.0000
  O   O66       1.0  0.8375023097942158  0.5608665069406019  0.7789364692197897  1.0000
  O   O67       1.0  0.7575077742019116  0.48256354202748974  0.10361363234887826  1.0000
  O   O68       1.0  0.6211989921787662  0.49581650319288983  0.12446289339035123  1.0000
  O   O69       1.0  0.667588604703711  0.4377610077015691  0.28869599008551844  1.0000
  O   O70       1.0  0.3881918653452384  0.5004140015524977  0.13534322737299365  1.0000
  O   O71       1.0  0.33775528956835255  0.43966246073675425  0.28223199933723314  1.0000
  O   O72       1.0  0.736933731259781  0.4951187218999546  0.8561588447150299  1.0000
  O   O73       1.0  0.6150192242145189  0.5171950613304217  0.878687916799864  1.0000
  O   O74       1.0  0.6586068590090682  0.5719478962152946  0.7169293473481346  1.0000
  O   O75       1.0  0.3859312043817982  0.5152249225007196  0.8784590959834183  1.0000
  O   O76       1.0  0.3370001479244284  0.5763564567474686  0.7219353086346622  1.0000
  O   O77       1.0  0.7696649149584849  0.4920877923970254  0.35737747687749166  1.0000
  O   O78       1.0  0.7535990585396873  0.5095850911797646  0.605099394119911  1.0000
  O   O79       1.0  0.2605339903974957  0.5010277927492125  0.13319192659141152  1.0000
  O   O80       1.0  0.25252792489213427  0.5142387516175172  0.8862439415101756  1.0000
