data_image0
_chemical_formula_structural       Al16H80C128O80
_chemical_formula_sum              "Al16 H80 C128 O80"
_cell_length_a       21.63717
_cell_length_b       21.63649
_cell_length_c       10.288049999999998
_cell_angle_alpha    90.00093999999999
_cell_angle_beta     89.99906
_cell_angle_gamma    90.00852000000002

_space_group_name_H-M_alt    "P 1"
_space_group_IT_number       1

loop_
  _space_group_symop_operation_xyz
  'x, y, z'

loop_
  _atom_site_type_symbol
  _atom_site_label
  _atom_site_symmetry_multiplicity
  _atom_site_fract_x
  _atom_site_fract_y
  _atom_site_fract_z
  _atom_site_occupancy
  Al  Al1       1.0  0.6726154131158354  0.9959157386386308  0.9970470662556873  1.0000
  Al  Al2       1.0  0.318338246951632  0.012697262277064025  0.9872366211249617  1.0000
  Al  Al3       1.0  0.7470582271656302  0.9267677805178166  0.7543408966799888  1.0000
  Al  Al4       1.0  0.24367062192513345  0.9367727236885843  0.7471145593254844  1.0000
  Al  Al5       1.0  0.7522477511008069  0.05912625003519981  0.24172248488967896  1.0000
  Al  Al6       1.0  0.254233359303862  0.0776540478957042  0.25042528474233283  1.0000
  Al  Al7       1.0  0.1827710943529669  0.0025517807518940687  0.4926363354925347  1.0000
  Al  Al8       1.0  0.8172747154177948  0.9927674628135204  0.5055249888365294  1.0000
  Al  Al9       1.0  0.254194222603713  0.5872981829183795  0.7504149000128973  1.0000
  Al  Al10      1.0  0.19035132417937087  0.5071748993249525  0.4986688722722648  1.0000
  Al  Al11      1.0  0.2528108028294413  0.4379932399033584  0.24508214294045655  1.0000
  Al  Al12      1.0  0.7503016069043396  0.5635921099885434  0.7565524634983969  1.0000
  Al  Al13      1.0  0.6813464435911324  0.493563243149437  0.003535768198034569  1.0000
  Al  Al14      1.0  0.7514027740381092  0.42542173860372917  0.24674634169577048  1.0000
  Al  Al15      1.0  0.31851468177844267  0.5095002357660892  0.9916110662347843  1.0000
  Al  Al16      1.0  0.8154890985795608  0.4948345097878913  0.494391462071902  1.0000
  H   H1        1.0  0.7544863421080477  0.4671478754072599  0.6863113507321799  1.0000
  H   H2        1.0  0.7187255194760425  0.5131874688906725  0.4067039187334869  1.0000
  H   H3        1.0  0.21836545122571643  0.016845449925956994  0.9265426055049633  1.0000
  H   H4        1.0  0.2895657874476673  0.5149152890545124  0.5995989727557818  1.0000
  H   H5        1.0  0.26436200768645296  0.5363612153201711  0.3285305846015143  1.0000
  H   H6        1.0  0.783353367333218  0.4920248821015489  0.934653467137873  1.0000
  H   H7        1.0  0.7423477364812231  0.5246627818511157  0.17058016246735666  1.0000
  H   H8        1.0  0.2507545113032393  0.48972031963976903  0.821345083108468  1.0000
  H   H9        1.0  0.7478081913064728  0.9593691334919187  0.35033799125878934  1.0000
  H   H10       1.0  0.7720026117604144  0.9890619463731771  0.07481252814742687  1.0000
  H   H11       1.0  0.7457293794496037  0.0317135359801879  0.8434767727932261  1.0000
  H   H12       1.0  0.7202281518658679  0.9990596686034278  0.5782675085755863  1.0000
  H   H13       1.0  0.23958791987441494  0.9864835171101406  0.1293963307291724  1.0000
  H   H14       1.0  0.23918850942669068  0.041936885333169326  0.665910322349106  1.0000
  H   H15       1.0  0.2785197374778617  0.013365187910121756  0.44495986909394586  1.0000
  H   H16       1.0  0.2179940638338973  0.5043401230855222  0.07335252941063589  1.0000
  H   H17       1.0  0.5829913761072536  0.9276633914052062  0.4933561823052925  1.0000
  H   H18       1.0  0.3884424821999326  0.9111275939595161  0.5247488631424694  1.0000
  H   H19       1.0  0.4931347849876319  0.9819771257563797  0.8522479500351996  1.0000
  H   H20       1.0  0.4855074908598623  0.9090446584940595  0.3983464875367936  1.0000
  H   H21       1.0  0.5969443118047086  0.09954505526060685  0.45329547691302513  1.0000
  H   H22       1.0  0.4000619816267521  0.08251618481344095  0.47716898550465314  1.0000
  H   H23       1.0  0.4966311520427752  0.02807676446633783  0.11861044516000593  1.0000
  H   H24       1.0  0.5008691519807534  0.1082679668645308  0.5847092511816036  1.0000
  H   H25       1.0  0.10094421347845536  0.8988506475560102  0.941341471183199  1.0000
  H   H26       1.0  0.903825603660295  0.8956210852858066  0.9822809252209758  1.0000
  H   H27       1.0  0.9896128761498045  0.9747419492296855  0.6409864349196117  1.0000
  H   H28       1.0  0.00789610853103584  0.88238703273881  0.08330626894607351  1.0000
  H   H29       1.0  0.09663614731610407  0.08320650620170034  0.029150368639412637  1.0000
  H   H30       1.0  0.899626427889993  0.0625568633037651  0.03058952863610634  1.0000
  H   H31       1.0  0.005787398661663565  0.027012874050151917  0.3772350154834451  1.0000
  H   H32       1.0  0.9924310827051556  0.0878994973473156  0.91225911251654  1.0000
  H   H33       1.0  0.16797167578663527  0.861496975116882  0.27500956845674585  1.0000
  H   H34       1.0  0.17094272973368357  0.6628332082510018  0.25084748622863673  1.0000
  H   H35       1.0  0.2421450391977931  0.7514694401857261  0.5859040431979048  1.0000
  H   H36       1.0  0.16061147622984656  0.7556548459922874  0.14160801224644834  1.0000
  H   H37       1.0  0.1571964715903945  0.1538254451680393  0.7168651281812198  1.0000
  H   H38       1.0  0.16314587847081893  0.3562813555222771  0.7269467422896186  1.0000
  H   H39       1.0  0.22381795434113239  0.2588558927812688  0.3851804531535574  1.0000
  H   H40       1.0  0.14755198184366602  0.2506664900818124  0.8350596529285964  1.0000
  H   H41       1.0  0.6845979133889307  0.8491323446711376  0.22440543938076854  1.0000
  H   H42       1.0  0.6920081742253487  0.6514761883995956  0.25758048616726864  1.0000
  H   H43       1.0  0.7204178551472118  0.7466793626196692  0.8881397419782184  1.0000
  H   H44       1.0  0.6857830577971747  0.7504004132224249  0.36955779287845625  1.0000
  H   H45       1.0  0.6680819215550685  0.14290094011482057  0.7931755699278368  1.0000
  H   H46       1.0  0.6572130026775049  0.3416808686634631  0.7701768111675589  1.0000
  H   H47       1.0  0.7420269239195174  0.25791025899743353  0.10291438419184794  1.0000
  H   H48       1.0  0.6381887592641505  0.23669565238518833  0.6690457736745448  1.0000
  H   H49       1.0  0.33649688578788983  0.8647796348980357  0.22609289813190914  1.0000
  H   H50       1.0  0.35952307282809476  0.664129710158427  0.20765191368383026  1.0000
  H   H51       1.0  0.2840899068245255  0.7643466719010354  0.8831407791024702  1.0000
  H   H52       1.0  0.3664561391867394  0.7666013271861815  0.33465111473277787  1.0000
  H   H53       1.0  0.3344841962730227  0.16366145922143374  0.7596316816212214  1.0000
  H   H54       1.0  0.34712811212642736  0.3609366277654077  0.767597109474124  1.0000
  H   H55       1.0  0.2815905549488462  0.26766882053562346  0.09904384215417156  1.0000
  H   H56       1.0  0.3678692119730184  0.2647184923530311  0.6470030396228021  1.0000
  H   H57       1.0  0.8355574686736414  0.8421289098750729  0.2902067992285711  1.0000
  H   H58       1.0  0.8538132347165182  0.6504640557320619  0.29598911269089  1.0000
  H   H59       1.0  0.7719681221895  0.7494889867994107  0.6220531686492864  1.0000
  H   H60       1.0  0.8581105223948654  0.7382960062743028  0.17912947259159503  1.0000
  H   H61       1.0  0.8357091785905404  0.14137626254310948  0.7164954089437526  1.0000
  H   H62       1.0  0.8454022424098607  0.34710328131718093  0.6864247210988008  1.0000
  H   H63       1.0  0.7574536244401133  0.24010169992595404  0.39032566434656735  1.0000
  H   H64       1.0  0.8669593094715664  0.24345463169101578  0.8244516212773728  1.0000
  H   H65       1.0  0.09864608617930956  0.39105159808726403  0.04899190226871418  1.0000
  H   H66       1.0  0.9018951456779991  0.41725077627203333  0.03850691045500506  1.0000
  H   H67       1.0  0.994431997304911  0.48265746961246586  0.3655406535749806  1.0000
  H   H68       1.0  0.9998298239219252  0.3778268717537518  0.9265260746755012  1.0000
  H   H69       1.0  0.09687166624444842  0.5973766249404946  0.9674524844531863  1.0000
  H   H70       1.0  0.8996024289933101  0.5872225135200658  0.9758206309943841  1.0000
  H   H71       1.0  0.0008587986054464276  0.5287205124092659  0.6315005401167809  1.0000
  H   H72       1.0  0.9974179532805485  0.5997568800173412  0.09654715327659877  1.0000
  H   H73       1.0  0.598723949381047  0.3936271058335417  0.4514351700516519  1.0000
  H   H74       1.0  0.3993606928466325  0.41565804203690887  0.4485647582624453  1.0000
  H   H75       1.0  0.5144863935784701  0.4899873345309031  0.14094727478873484  1.0000
  H   H76       1.0  0.4851848479623673  0.36966564892054704  0.5642739043416699  1.0000
  H   H77       1.0  0.6019347475051294  0.6011661196402219  0.5312945049325193  1.0000
  H   H78       1.0  0.4097877555182456  0.5891424389574831  0.5198346782373021  1.0000
  H   H79       1.0  0.49652488662865385  0.5239686064679109  0.8591930319524949  1.0000
  H   H80       1.0  0.5018087752598906  0.6097002989635195  0.4168345119973268  1.0000
  C   C1        1.0  0.5443035895868222  0.9324891722926544  0.5542631501144142  1.0000
  C   C2        1.0  0.5488200042550755  0.9535596953674873  0.6885161981042383  1.0000
  C   C3        1.0  0.6088520272830292  0.9599352657399814  0.7648551369907484  1.0000
  C   C4        1.0  0.4930532320790287  0.9613215399656572  0.7537038430107547  1.0000
  C   C5        1.0  0.48574808353218163  0.9191109720492128  0.4997330710274173  1.0000
  C   C6        1.0  0.43185400531505275  0.9217416429735696  0.5696217000867145  1.0000
  C   C7        1.0  0.43494890373138145  0.9457936996704391  0.6988480403900559  1.0000
  C   C8        1.0  0.3758478150785758  0.9593840703571106  0.7660801922736633  1.0000
  C   C9        1.0  0.5545375819163102  0.0798987734596188  0.41362399105226055  1.0000
  C   C10       1.0  0.5544645967177126  0.056429048909769686  0.2858407298556493  1.0000
  C   C11       1.0  0.6146772366645703  0.04422805035113903  0.21929488490113927  1.0000
  C   C12       1.0  0.500118071645763  0.04550582738358806  0.219233728510942  1.0000
  C   C13       1.0  0.49768805265754795  0.09064038126245119  0.4812770497161777  1.0000
  C   C14       1.0  0.4430613304621863  0.07728002833881392  0.41930068197189224  1.0000
  C   C15       1.0  0.4445397737636182  0.05336580690168206  0.29280710735374543  1.0000
  C   C16       1.0  0.38389934803366  0.0498531072654343  0.22816141451798105  1.0000
  C   C17       1.0  0.053688369955019716  0.9094602190826856  0.9110958706968346  1.0000
  C   C18       1.0  0.05014200172036632  0.9402560434081056  0.7865870687037718  1.0000
  C   C19       1.0  0.11212030530042093  0.9526265607401266  0.719697395715674  1.0000
  C   C20       1.0  0.9926130816416704  0.9548501117281611  0.7347967119166845  1.0000
  C   C21       1.0  0.0021056133261823096  0.8942711394146619  0.9812142216179652  1.0000
  C   C22       1.0  0.9437291111646811  0.9104179916629971  0.927904354330423  1.0000
  C   C23       1.0  0.9389321381361267  0.9399995077163695  0.8081448867606132  1.0000
  C   C24       1.0  0.8810022342478467  0.9496508617406907  0.7349797057785443  1.0000
  C   C25       1.0  0.053463920555200994  0.07640851378670567  0.07653506837660239  1.0000
  C   C26       1.0  0.055419350509131785  0.05397361141741408  0.20484979763581745  1.0000
  C   C27       1.0  0.11996378941705946  0.05263939214797963  0.27067304404133125  1.0000
  C   C28       1.0  0.002461622211775724  0.04247395026280422  0.28086930475431676  1.0000
  C   C29       1.0  0.9948086947338229  0.07984153181331297  0.015320805210163152  1.0000
  C   C30       1.0  0.942442010752963  0.06749069263106726  0.08153547953458128  1.0000
  C   C31       1.0  0.9448641198545719  0.052109017862193026  0.21688235774519823  1.0000
  C   C32       1.0  0.8851685839338109  0.033128809254711254  0.2730610446834949  1.0000
  C   C33       1.0  0.1880482308473256  0.8177030247893616  0.30470917723413615  1.0000
  C   C34       1.0  0.20948663426238143  0.8141053794084159  0.4321229291456036  1.0000
  C   C35       1.0  0.21237669298637904  0.8697801116232242  0.5090568874966039  1.0000
  C   C36       1.0  0.22495279511257693  0.7554368589340651  0.4888151789069252  1.0000
  C   C37       1.0  0.17792789630925343  0.7597650324202194  0.239714217044406  1.0000
  C   C38       1.0  0.18575313170949434  0.7030171743441844  0.30133836449417734  1.0000
  C   C39       1.0  0.20934644965269886  0.7010823864128454  0.4247119921827663  1.0000
  C   C40       1.0  0.21110633220456623  0.6424155093774748  0.5071106226548322  1.0000
  C   C41       1.0  0.16620985537237704  0.19807566805286847  0.6658130016712059  1.0000
  C   C42       1.0  0.1927198821155576  0.1977658817196639  0.5373547340349031  1.0000
  C   C43       1.0  0.2048602721120152  0.13860319755699654  0.47483989495722695  1.0000
  C   C44       1.0  0.20560005052057112  0.2544096431028203  0.47799988446046116  1.0000
  C   C45       1.0  0.1590823528018396  0.2537277512172355  0.73447524574954  1.0000
  C   C46       1.0  0.17147556824331633  0.31058847441591975  0.6753106061760729  1.0000
  C   C47       1.0  0.19638659980505455  0.3115256501755833  0.5460379023733192  1.0000
  C   C48       1.0  0.20892427914126277  0.36759051830488204  0.472296134963152  1.0000
  C   C49       1.0  0.693246908402144  0.8052577260645315  0.18579334378375006  1.0000
  C   C50       1.0  0.7016287002998383  0.8023052285546469  0.050678853635073275  1.0000
  C   C51       1.0  0.6981431557587735  0.8622843063548755  0.9752532814965131  1.0000
  C   C52       1.0  0.7074739009045864  0.7463333542134694  0.9882967639869865  1.0000
  C   C53       1.0  0.6875563368873998  0.7534676792604056  0.25940375005158567  1.0000
  C   C54       1.0  0.6894699754320994  0.6934404559719732  0.20055122210285428  1.0000
  C   C55       1.0  0.6985691917376051  0.6908653427050186  0.06585334345987134  1.0000
  C   C56       1.0  0.7033122144749675  0.6287182574275156  0.004133759340221532  1.0000
  C   C57       1.0  0.6714534262099209  0.18878016645310883  0.8374445256699423  1.0000
  C   C58       1.0  0.6966991362010535  0.19137072311744227  0.9665778055779456  1.0000
  C   C59       1.0  0.7066922301812006  0.12931670342415266  0.027195370364189165  1.0000
  C   C60       1.0  0.7173686760689365  0.24858485442511483  0.012132230114899398  1.0000
  C   C61       1.0  0.6547119278821224  0.2408697614923723  0.7668698948900178  1.0000
  C   C62       1.0  0.6706167786904182  0.2983826761646003  0.8194850454915095  1.0000
  C   C63       1.0  0.7000456832586526  0.30131291135068644  0.9411572564874588  1.0000
  C   C64       1.0  0.7089813353435561  0.3598264727052289  0.0102650443989309  1.0000
  C   C65       1.0  0.3301529832096904  0.8200095158105193  0.1790844271262129  1.0000
  C   C66       1.0  0.3062545248091803  0.8194642081274738  0.05089118250211687  1.0000
  C   C67       1.0  0.28749671147333405  0.8772662336897579  0.9844815521625335  1.0000
  C   C68       1.0  0.2968557101025696  0.7613561558525574  0.982394014679164  1.0000
  C   C69       1.0  0.3469898721502117  0.763472863438151  0.23490183277203916  1.0000
  C   C70       1.0  0.33956383410399865  0.7075796370224948  0.16870764143517034  1.0000
  C   C71       1.0  0.3126429570228091  0.7068152541460182  0.04585815000189233  1.0000
  C   C72       1.0  0.30159288559915626  0.6470952549073211  0.9779299694993331  1.0000
  C   C73       1.0  0.32981523943316526  0.20673284646221496  0.8121852034397883  1.0000
  C   C74       1.0  0.308334007003337  0.20685274485760627  0.941660158398063  1.0000
  C   C75       1.0  0.29745482933948764  0.1453094749591437  0.019122228221377626  1.0000
  C   C76       1.0  0.302192507064045  0.26352905349542155  0.006681748243690484  1.0000
  C   C77       1.0  0.34634878985178735  0.2636846958820069  0.7482893339429535  1.0000
  C   C78       1.0  0.33400445605090034  0.31782194739547315  0.8126288890751835  1.0000
  C   C79       1.0  0.3142616268247691  0.31858661945336425  0.9458887488512303  1.0000
  C   C80       1.0  0.2946798200257925  0.37793258358684834  0.007021995423762709  1.0000
  C   C81       1.0  0.8273044953586314  0.7972112687580153  0.33564302962459375  1.0000
  C   C82       1.0  0.8054273105494802  0.7990032262132555  0.46042928750101325  1.0000
  C   C83       1.0  0.7930371153127682  0.8598297801702763  0.5229546076708331  1.0000
  C   C84       1.0  0.7916569574637199  0.7445085556515277  0.5269632147451668  1.0000
  C   C85       1.0  0.8449497525285636  0.7435313262247187  0.27853892824890975  1.0000
  C   C86       1.0  0.8389121168266279  0.6911354920518601  0.35077342460147387  1.0000
  C   C87       1.0  0.81134459542559  0.6884627814641905  0.4760076769959255  1.0000
  C   C88       1.0  0.7931361662021902  0.6279728527796223  0.5331734314545719  1.0000
  C   C89       1.0  0.826545704267359  0.1866104391415973  0.6734098485003944  1.0000
  C   C90       1.0  0.795672238772403  0.18835944889627512  0.5539611822973025  1.0000
  C   C91       1.0  0.7900568547177287  0.12463177444638993  0.4865541916443964  1.0000
  C   C92       1.0  0.785019327924172  0.24421413717618737  0.4861795424153358  1.0000
  C   C93       1.0  0.8477016523273119  0.24228172702343964  0.727629668597509  1.0000
  C   C94       1.0  0.8375215493880258  0.2980462821512241  0.6569147605055198  1.0000
  C   C95       1.0  0.803840745413641  0.2990341407514273  0.5441076502842115  1.0000
  C   C96       1.0  0.791332025375101  0.359515926002763  0.47120781113084037  1.0000
  C   C97       1.0  0.05785139847391948  0.4117815151465812  0.08963026231872522  1.0000
  C   C98       1.0  0.058498375460922035  0.4442354284449146  0.21236418568999732  1.0000
  C   C99       1.0  0.12148581139635253  0.4577224189617196  0.2719287961035273  1.0000
  C   C100      1.0  0.0004023844864715631  0.45494470938629916  0.2736188306586354  1.0000
  C   C101      1.0  0.0030928018056490814  0.39988086466230943  0.0252059632359668  1.0000
  C   C102      1.0  0.947243753460953  0.42137751592866024  0.08407607274777855  1.0000
  C   C103      1.0  0.9455670463525524  0.44350856736802136  0.20820300451265844  1.0000
  C   C104      1.0  0.8859315744633899  0.45418163927568034  0.2755230836516975  1.0000
  C   C105      1.0  0.05330914437825864  0.5867114100969598  0.9214600466124547  1.0000
  C   C106      1.0  0.05546280227109872  0.5672072592046192  0.7882480413861166  1.0000
  C   C107      1.0  0.1188438915518607  0.5579911467047061  0.7226304082893027  1.0000
  C   C108      1.0  0.9983061478944761  0.5478172291636985  0.7293694812932887  1.0000
  C   C109      1.0  0.9956783039164893  0.5904703250323969  0.9891561950747416  1.0000
  C   C110      1.0  0.9407007467968727  0.5777344284861036  0.9273221254336337  1.0000
  C   C111      1.0  0.9424949703334649  0.5567911264929852  0.7947141899777257  1.0000
  C   C112      1.0  0.8810547207759944  0.5425406779904263  0.7298705859731248  1.0000
  C   C113      1.0  0.5532422103289104  0.4060796967360491  0.4138410632866102  1.0000
  C   C114      1.0  0.5544251553399898  0.4448343347876697  0.2987046224335058  1.0000
  C   C115      1.0  0.6142984546574219  0.4454388446310263  0.223634453625243  1.0000
  C   C116      1.0  0.5027775869752579  0.46420192288478207  0.23228877976323428  1.0000
  C   C117      1.0  0.49591251817861104  0.3934252299696666  0.46811513661928933  1.0000
  C   C118      1.0  0.44421717918445525  0.41851982131282733  0.40737056596030297  1.0000
  C   C119      1.0  0.44401750498167425  0.44975031045566405  0.27925236179578944  1.0000
  C   C120      1.0  0.38644021508225335  0.4585991165067372  0.20904398020798734  1.0000
  C   C121      1.0  0.5608654650841702  0.5804469562233541  0.5712495527900457  1.0000
  C   C122      1.0  0.5616129843854732  0.5529766847262683  0.6980676427440334  1.0000
  C   C123      1.0  0.6188938062211425  0.5445789102975237  0.7667417792606853  1.0000
  C   C124      1.0  0.501662607246236  0.5411293684544932  0.7574578790049804  1.0000
  C   C125      1.0  0.5053646092758827  0.5878393955705371  0.5071250384090364  1.0000
  C   C126      1.0  0.4491130864915703  0.5746570061754183  0.5676650435769368  1.0000
  C   C127      1.0  0.4465266186151668  0.5500517407832105  0.691788520848496  1.0000
  C   C128      1.0  0.38617018520660934  0.54761261274107  0.7530055824072455  1.0000
  O   O1        1.0  0.7339608823601156  0.99060256978919  0.8776772976832387  1.0000
  O   O2        1.0  0.6066548868819077  0.9955447091310505  0.8659878307743136  1.0000
  O   O3        1.0  0.6552291478216492  0.9282784461701726  0.7221174529672135  1.0000
  O   O4        1.0  0.3777355480094928  0.9951051108926912  0.8617642218288192  1.0000
  O   O5        1.0  0.3259968840453604  0.9348509280580359  0.7214482824245108  1.0000
  O   O6        1.0  0.7358052842355259  0.993934105631106  0.125494151986767  1.0000
  O   O7        1.0  0.6122500023647838  0.0036001203087162887  0.12465035651509487  1.0000
  O   O8        1.0  0.6718876140607121  0.08612801924324247  0.9829039616566196  1.0000
  O   O9        1.0  0.6632404895440835  0.9068763749983314  0.011803323276294351  1.0000
  O   O10       1.0  0.6617512368751111  0.07221088316290987  0.2573106925717139  1.0000
  O   O11       1.0  0.3750820087421382  0.020370626423324434  0.1249100830911437  1.0000
  O   O12       1.0  0.3394253474715544  0.07256462499377186  0.2991537435012731  1.0000
  O   O13       1.0  0.2369596032130956  0.0017092165029974904  0.6242897207661785  1.0000
  O   O14       1.0  0.11357320830923759  0.9882275216029468  0.6246235469043606  1.0000
  O   O15       1.0  0.15886378089608472  0.9289995370274557  0.7763652715674533  1.0000
  O   O16       1.0  0.8793749530003563  0.9844912950582293  0.6366086247406059  1.0000
  O   O17       1.0  0.8322874872792884  0.9265551783333627  0.7905755135510503  1.0000
  O   O18       1.0  0.24513399168536706  0.010837348869930893  0.3685545045971223  1.0000
  O   O19       1.0  0.1220860938163471  0.01140007116311159  0.3564968736531257  1.0000
  O   O20       1.0  0.17786559056192555  0.09268472482050506  0.5279610112180418  1.0000
  O   O21       1.0  0.17895571833371032  0.9167579989096295  0.47224316088155766  1.0000
  O   O22       1.0  0.16399889318245842  0.07973413561119362  0.2195329407038093  1.0000
  O   O23       1.0  0.8828564887477567  0.0009371281173226963  0.38067252405013347  1.0000
  O   O24       1.0  0.8337154650189662  0.0489920321861425  0.21902345834306935  1.0000
  O   O25       1.0  0.24166202723574892  0.8695505472583017  0.6195261280529638  1.0000
  O   O26       1.0  0.23977101889880456  0.6465700069866097  0.6130883939811208  1.0000
  O   O27       1.0  0.18676972299524186  0.5942581820848106  0.45272104055223855  1.0000
  O   O28       1.0  0.2516943429598496  0.0026589024657901472  0.8671210464957708  1.0000
  O   O29       1.0  0.2496309145781534  0.8804866538776189  0.8862863635435169  1.0000
  O   O30       1.0  0.24458568787902857  0.14051523043388603  0.38405956143908254  1.0000
  O   O31       1.0  0.24620097082611336  0.3657648517182352  0.3728279752754172  1.0000
  O   O32       1.0  0.18911284143271725  0.4188848137443791  0.5263846347419979  1.0000
  O   O33       1.0  0.25878395178075203  0.02504635313488044  0.11147763864956432  1.0000
  O   O34       1.0  0.26694711875647553  0.14269415206471237  0.12698426818994696  1.0000
  O   O35       1.0  0.7305333082818228  0.8643734270050192  0.8753938270540792  1.0000
  O   O36       1.0  0.7379434842890004  0.625640160475324  0.9032032992161505  1.0000
  O   O37       1.0  0.67833788026222  0.5805663678999229  0.059578247594534964  1.0000
  O   O38       1.0  0.7535710897348045  0.986455803967008  0.6300721255966382  1.0000
  O   O39       1.0  0.7653453240996941  0.8605747835672574  0.6296635243552823  1.0000
  O   O40       1.0  0.7499055566558158  0.12452604061012063  0.11858508369694246  1.0000
  O   O41       1.0  0.7440254146578894  0.36000903851484384  0.10977386388129266  1.0000
  O   O42       1.0  0.6813800724244243  0.4057540747391291  0.9617914398416543  1.0000
  O   O43       1.0  0.7551930852175597  0.0014310813520102095  0.3845484325080755  1.0000
  O   O44       1.0  0.7632045162185601  0.12435003555156295  0.3771056556921963  1.0000
  O   O45       1.0  0.31714324592740045  0.9254151466368146  0.027699908153313142  1.0000
  O   O46       1.0  0.2641113871872829  0.6486812990759375  0.8783718782890796  1.0000
  O   O47       1.0  0.32632115079442947  0.6008757668462378  0.029905327062251782  1.0000
  O   O48       1.0  0.31958605928764533  0.09716405754655168  0.9583708324369982  1.0000
  O   O49       1.0  0.2651222934647068  0.37542588211676725  0.11201807439798082  1.0000
  O   O50       1.0  0.313476339534935  0.4293444028101637  0.9497730826181496  1.0000
  O   O51       1.0  0.8192224055691674  0.9082676215029045  0.4689022012235806  1.0000
  O   O52       1.0  0.7595871709165022  0.6300800934701336  0.6335020661596696  1.0000
  O   O53       1.0  0.8157352656844892  0.5804047253884659  0.47954015885689827  1.0000
  O   O54       1.0  0.813574028344659  0.07684323015275918  0.5343773146008759  1.0000
  O   O55       1.0  0.7592904152810865  0.36170461047727037  0.3639513339270007  1.0000
  O   O56       1.0  0.8112055178845516  0.40769998779226974  0.5301047401079613  1.0000
  O   O57       1.0  0.25358265876175967  0.4980629809221454  0.3766670662606505  1.0000
  O   O58       1.0  0.12484945679132309  0.4966425590114278  0.3668655061956102  1.0000
  O   O59       1.0  0.16675704875845124  0.42612742233384715  0.219185580416781  1.0000
  O   O60       1.0  0.8830547109367162  0.48824457853515807  0.3735104641826338  1.0000
  O   O61       1.0  0.8404687454334839  0.42132262579608687  0.2287191936891111  1.0000
  O   O62       1.0  0.24865062333301668  0.5173268174539527  0.6327790409020162  1.0000
  O   O63       1.0  0.12228243128721254  0.521031306659293  0.6294178519488807  1.0000
  O   O64       1.0  0.16450253335374582  0.588678000859922  0.7718460983507104  1.0000
  O   O65       1.0  0.8794208655958201  0.4989539006680826  0.6441209958916793  1.0000
  O   O66       1.0  0.8361257189167126  0.5765836797819289  0.7737175686492782  1.0000
  O   O67       1.0  0.7446697409640118  0.487139340155222  0.12055669056174763  1.0000
  O   O68       1.0  0.6167281925620028  0.47488267493739844  0.11444459740347927  1.0000
  O   O69       1.0  0.6585842584961197  0.415406873216654  0.2706711933504807  1.0000
  O   O70       1.0  0.3843773465697366  0.4929956440625432  0.10882136170618299  1.0000
  O   O71       1.0  0.34154488674655153  0.4297528319903908  0.2576357454243828  1.0000
  O   O72       1.0  0.7481914700039816  0.4979276433305024  0.8801558334608507  1.0000
  O   O73       1.0  0.6176656003145664  0.5042653559007745  0.865419862111489  1.0000
  O   O74       1.0  0.6663477028163541  0.5779110747842061  0.7338292078704679  1.0000
  O   O75       1.0  0.3815410487988009  0.518035159532541  0.8601774779848067  1.0000
  O   O76       1.0  0.3434461781037457  0.5830718277357387  0.7031255089105085  1.0000
  O   O77       1.0  0.7541463641205876  0.4895893165821698  0.37517544637115446  1.0000
  O   O78       1.0  0.7551484708785667  0.5053664872020641  0.6328203383296254  1.0000
  O   O79       1.0  0.2556968098022266  0.5045858494217652  0.1233956474105052  1.0000
  O   O80       1.0  0.25549232328615673  0.5258386632708609  0.8755763125591561  1.0000
