data_image0
_chemical_formula_structural       Al16H96C128N16O80
_chemical_formula_sum              "Al16 H96 C128 N16 O80"
_cell_length_a       21.6116
_cell_length_b       21.61518
_cell_length_c       10.18042
_cell_angle_alpha    89.73663999999998
_cell_angle_beta     89.71647
_cell_angle_gamma    90.60553000000002

_space_group_name_H-M_alt    "P 1"
_space_group_IT_number       1

loop_
  _space_group_symop_operation_xyz
  'x, y, z'

loop_
  _atom_site_type_symbol
  _atom_site_label
  _atom_site_symmetry_multiplicity
  _atom_site_fract_x
  _atom_site_fract_y
  _atom_site_fract_z
  _atom_site_occupancy
  Al  Al1       1.0  0.7498458441413242  0.42663419950419457  0.7678344249385174  1.0000
  Al  Al2       1.0  0.7540808481028066  0.5708739424538317  0.25146349271331986  1.0000
  Al  Al3       1.0  0.8262882821910256  0.5054326965973347  0.004852079466473924  1.0000
  Al  Al4       1.0  0.6886751599586043  0.49530967213650445  0.5089790373286444  1.0000
  Al  Al5       1.0  0.24566296033691987  0.9371342263183892  0.24786080977536953  1.0000
  Al  Al6       1.0  0.25152203609493823  0.07026137513147782  0.7416945403168594  1.0000
  Al  Al7       1.0  0.31842285497077355  0.009021428261531817  0.479773256656691  1.0000
  Al  Al8       1.0  0.17994796927070805  0.0022469018945923125  0.9942318003186655  1.0000
  Al  Al9       1.0  0.25397255107806926  0.5734309532402733  0.2583141970695793  1.0000
  Al  Al10      1.0  0.2508836960581807  0.4346103773717576  0.7507109056391487  1.0000
  Al  Al11      1.0  0.1796958331272045  0.49956419171755745  0.008883716460211744  1.0000
  Al  Al12      1.0  0.3245792750609495  0.5118598655833271  0.5129714518746835  1.0000
  Al  Al13      1.0  0.7545235382195472  0.07491007438671796  0.7430769935376329  1.0000
  Al  Al14      1.0  0.7445353681315402  0.9228309771544788  0.24395454100874575  1.0000
  Al  Al15      1.0  0.6834647659457477  0.9967270674659525  0.5054441439227613  1.0000
  Al  Al16      1.0  0.8176034767178514  0.0026596168842860646  0.0023907875158229843  1.0000
  H   H1        1.0  0.6305765280175243  0.2935189519578661  0.06702573457768696  1.0000
  H   H2        1.0  0.8429886147075303  0.7136040416864048  0.552974665640196  1.0000
  H   H3        1.0  0.9580691146354725  0.3149417242371518  0.4285372041683956  1.0000
  H   H4        1.0  0.5422186864240373  0.6854085423447538  0.9136660725573958  1.0000
  H   H5        1.0  0.8257121802729471  0.289508547049751  0.43495865406046025  1.0000
  H   H6        1.0  0.6521202549675447  0.7032116114313085  0.9135901702064252  1.0000
  H   H7        1.0  0.5363302374664719  0.43123320163844625  0.20016521738925525  1.0000
  H   H8        1.0  0.9573290864403294  0.5916863467451738  0.6938869332706151  1.0000
  H   H9        1.0  0.14977389323949822  0.7957721740508948  0.5742969365935778  1.0000
  H   H10       1.0  0.3418680751217401  0.22780232815865617  0.05897624949177864  1.0000
  H   H11       1.0  0.46474505601457244  0.8033531558894955  0.9258051305384072  1.0000
  H   H12       1.0  0.0451788735369057  0.1178548714803384  0.3266459422518557  1.0000
  H   H13       1.0  0.35557446133572107  0.8079998540459199  0.9102686697722022  1.0000
  H   H14       1.0  0.1767586756009668  0.2225454211525845  0.4376719278467197  1.0000
  H   H15       1.0  0.03179509242618485  0.7897917194717657  0.5313514011488644  1.0000
  H   H16       1.0  0.4654292074700662  0.16203487094926494  0.09636093430804252  1.0000
  H   H17       1.0  0.3370813441277935  0.7337100300470926  0.9464702503907073  1.0000
  H   H18       1.0  0.16359130893993  0.30029168277852053  0.4288900258394103  1.0000
  H   H19       1.0  0.03503355740634019  0.584136773366988  0.7145510197429071  1.0000
  H   H20       1.0  0.47258984305265783  0.3929640138603888  0.17976208982030506  1.0000
  H   H21       1.0  0.1305303505372144  0.7202530725194836  0.5661142957785918  1.0000
  H   H22       1.0  0.34623421989426106  0.3051255191503448  0.07562532359760854  1.0000
  H   H23       1.0  0.46619519050689323  0.6721745429788827  0.9000291017680209  1.0000
  H   H24       1.0  0.034495219095431094  0.312864328026929  0.4038563479942476  1.0000
  H   H25       1.0  0.8409062354795246  0.21346412197736508  0.44635376193121645  1.0000
  H   H26       1.0  0.6402790293523308  0.7802418468500943  0.9288093400889452  1.0000
  H   H27       1.0  0.5350903095752185  0.13145610525357812  0.1491774521292982  1.0000
  H   H28       1.0  0.9550396237980054  0.7859063403498203  0.519749234179349  1.0000
  H   H29       1.0  0.6412914932846477  0.2142053345597225  0.06043836825630879  1.0000
  H   H30       1.0  0.8475116351065961  0.7882458500082165  0.5623489949760304  1.0000
  H   H31       1.0  0.9698200267097074  0.10459885406329039  0.29852187371392574  1.0000
  H   H32       1.0  0.5443547463537933  0.8147267519809891  0.9041530021324783  1.0000
  H   H33       1.0  0.728784626799083  0.25106731136217  0.5980359729788403  1.0000
  H   H34       1.0  0.7796954917826592  0.7597826431550346  0.11047597301478679  1.0000
  H   H35       1.0  0.9946730272011661  0.4731506847492122  0.8656852564837585  1.0000
  H   H36       1.0  0.5085804094276928  0.5293524022362252  0.3781114571638563  1.0000
  H   H37       1.0  0.7703394484359262  0.256286619897016  0.8974490888169807  1.0000
  H   H38       1.0  0.7255425895286146  0.7460119735832695  0.38845625900859015  1.0000
  H   H39       1.0  0.49956670045586493  0.49149350396593044  0.6460973121444727  1.0000
  H   H40       1.0  0.0022789449785411303  0.5273305056163484  0.14959721757174618  1.0000
  H   H41       1.0  0.21528700514818314  0.749252696409264  0.1158327821712689  1.0000
  H   H42       1.0  0.2707159724443644  0.2572036647061615  0.591979988928383  1.0000
  H   H43       1.0  0.48820133109718333  0.9947680349971555  0.3321243110813367  1.0000
  H   H44       1.0  0.003607665800203552  0.018864784588473956  0.8517690059065074  1.0000
  H   H45       1.0  0.25786265241778367  0.7545620481987413  0.3911790856661217  1.0000
  H   H46       1.0  0.21394523818557995  0.24870443767322323  0.8801314620494669  1.0000
  H   H47       1.0  0.9933563063331708  0.9999126453709669  0.1805239816471446  1.0000
  H   H48       1.0  0.5094191345975622  0.012934475105527145  0.6388288717783667  1.0000
  H   H49       1.0  0.6631790787348978  0.3566675258284574  0.26557950782664963  1.0000
  H   H50       1.0  0.839656931808094  0.648470021516706  0.7763754452801126  1.0000
  H   H51       1.0  0.9036248403824774  0.37660268343696474  0.5428286479957538  1.0000
  H   H52       1.0  0.6023870467695862  0.5967580581571293  0.035373438524306015  1.0000
  H   H53       1.0  0.8293258268137641  0.3481621279133736  0.24095748456963229  1.0000
  H   H54       1.0  0.6490072421195335  0.6459778286187534  0.7203617901829398  1.0000
  H   H55       1.0  0.6035468782400514  0.4393357199905477  0.9897189148944139  1.0000
  H   H56       1.0  0.9065008833498731  0.5706594921350749  0.5049427139552674  1.0000
  H   H57       1.0  0.14972661458148506  0.8542850999153537  0.793585493456048  1.0000
  H   H58       1.0  0.33667391614684966  0.16216774240523119  0.261657061554938  1.0000
  H   H59       1.0  0.3996049051782363  0.8809142640461944  0.030694349839027656  1.0000
  H   H60       1.0  0.10193482904912911  0.09820761162696524  0.5241421139298154  1.0000
  H   H61       1.0  0.34422710180039495  0.862201232290645  0.7108523768623662  1.0000
  H   H62       1.0  0.17955156363631017  0.14886029157789266  0.2290786654657785  1.0000
  H   H63       1.0  0.0936036448684566  0.8619929781829273  0.3972715847688973  1.0000
  H   H64       1.0  0.4039374298373658  0.09999818870259546  0.9534323780622632  1.0000
  H   H65       1.0  0.3130334751068276  0.6621681423864709  0.7303790213704295  1.0000
  H   H66       1.0  0.16405433252039303  0.355484125662482  0.2127530913643854  1.0000
  H   H67       1.0  0.10152946450286908  0.5827034387325273  0.4955247370839983  1.0000
  H   H68       1.0  0.40463353009812125  0.4115891649707286  0.9907704370083165  1.0000
  H   H69       1.0  0.16193882871633966  0.6524815674755049  0.7477447867507512  1.0000
  H   H70       1.0  0.3346147954825553  0.36387680409441653  0.26886765032200094  1.0000
  H   H71       1.0  0.406792722381068  0.6326250853883947  0.07528848100700335  1.0000
  H   H72       1.0  0.09919449873409211  0.3821489367344584  0.5591539185663271  1.0000
  H   H73       1.0  0.8328843115589206  0.14875355072910923  0.24319519628681197  1.0000
  H   H74       1.0  0.6656356672362675  0.8469269991811617  0.7269141424069923  1.0000
  H   H75       1.0  0.6011893948749889  0.10003798822460401  0.9648140294000059  1.0000
  H   H76       1.0  0.8961561363589663  0.8541823683010246  0.37502421277923137  1.0000
  H   H77       1.0  0.6682392873317307  0.15232698371085565  0.25658707134180886  1.0000
  H   H78       1.0  0.8150603745979659  0.8480317786746583  0.7467745332948382  1.0000
  H   H79       1.0  0.9023990942309024  0.0824203404473895  0.5173723177273032  1.0000
  H   H80       1.0  0.5997754417535526  0.8785835264386922  0.08327289655061841  1.0000
  H   H81       1.0  0.25348000178919333  0.5312127295404574  0.844069174572863  1.0000
  H   H82       1.0  0.22272441974939886  0.5094373722895394  0.5882688570807106  1.0000
  H   H83       1.0  0.25953441151679174  0.4762021074985799  0.33407686590741975  1.0000
  H   H84       1.0  0.2790430336430778  0.5073545201821573  0.08154231607238384  1.0000
  H   H85       1.0  0.7360258697880196  0.4710310057755952  0.16612090692686685  1.0000
  H   H86       1.0  0.7839485831661657  0.48631387948490723  0.3881161414284918  1.0000
  H   H87       1.0  0.7529691204715806  0.5318314994149184  0.6845995728819211  1.0000
  H   H88       1.0  0.7283801358164295  0.5196298643165211  0.8927185462550853  1.0000
  H   H89       1.0  0.24682928536992613  0.9717610691257867  0.8371046589290642  1.0000
  H   H90       1.0  0.27916768419010357  0.01515219860242574  0.09144000523187142  1.0000
  H   H91       1.0  0.2503848224156869  0.03914127261684174  0.3054258619724248  1.0000
  H   H92       1.0  0.2219369434430238  0.9921805044409381  0.5721180224307149  1.0000
  H   H93       1.0  0.7636800414338752  0.9751322463950368  0.6707575331343728  1.0000
  H   H94       1.0  0.735689922816659  0.023015908872549146  0.17614017540536106  1.0000
  H   H95       1.0  0.7137452689894188  0.9995886824478368  0.8986924669665391  1.0000
  H   H96       1.0  0.78475009464261  0.9889477265761684  0.4054585300241829  1.0000
  C   C1        1.0  0.7084418530095754  0.3620399511443027  0.5236248669614759  1.0000
  C   C2        1.0  0.8010381198998188  0.6362739625371501  0.018449511858448214  1.0000
  C   C3        1.0  0.8856978313757502  0.4419244894074686  0.7861700213855851  1.0000
  C   C4        1.0  0.6188814759781907  0.5418570784928347  0.27449750067659573  1.0000
  C   C5        1.0  0.7851314469376133  0.3668569709648202  0.005847564290149654  1.0000
  C   C6        1.0  0.7072594694445441  0.6323008186261813  0.4763026862448065  1.0000
  C   C7        1.0  0.6195281791110014  0.4676646580241283  0.7414547647213819  1.0000
  C   C8        1.0  0.8923756371099858  0.5418051930552505  0.23877937491078696  1.0000
  C   C9        1.0  0.1971956915164018  0.8674959833890972  0.027255122667919268  1.0000
  C   C10       1.0  0.29951002654428643  0.14177186237214917  0.49904397949780144  1.0000
  C   C11       1.0  0.3800387791342104  0.957524541694673  0.24797630865497525  1.0000
  C   C12       1.0  0.11680739171758225  0.04428015713049156  0.7598829233339986  1.0000
  C   C13       1.0  0.29353717659631545  0.8741021535889306  0.4711613348553997  1.0000
  C   C14       1.0  0.2045820390854159  0.13901927531146888  0.9786840804254147  1.0000
  C   C15       1.0  0.1112969611454858  0.95527413245545  0.21615860598618208  1.0000
  C   C16       1.0  0.38850378936524205  0.045776107593378405  0.7129796642637439  1.0000
  C   C17       1.0  0.28889162417808706  0.6440689413695947  0.4950903392949726  1.0000
  C   C18       1.0  0.20033619617791812  0.366048144305777  0.9757660677339124  1.0000
  C   C19       1.0  0.1179019164597882  0.5437776335421358  0.2381437165421918  1.0000
  C   C20       1.0  0.38592239331645634  0.46206560381118195  0.743633038424392  1.0000
  C   C21       1.0  0.20666500136624127  0.6357205224464498  0.008492633206789162  1.0000
  C   C22       1.0  0.2939378833096313  0.37335488847809434  0.5075346097940997  1.0000
  C   C23       1.0  0.3882460147911809  0.5569661314882619  0.2799687203238538  1.0000
  C   C24       1.0  0.12099220756567221  0.45585373946645746  0.7629701048513987  1.0000
  C   C25       1.0  0.7937760333875568  0.13633199685685668  0.984515655005362  1.0000
  C   C26       1.0  0.712750580709674  0.8602917683579847  0.48225114965940835  1.0000
  C   C27       1.0  0.6180438812621273  0.04234398549483246  0.7291427157836636  1.0000
  C   C28       1.0  0.8817920594398491  0.9485357434006351  0.22388551541231863  1.0000
  C   C29       1.0  0.7045678751935768  0.13285913479548095  0.5061326746097335  1.0000
  C   C30       1.0  0.7833589706427602  0.8669080325599554  0.9991959684688212  1.0000
  C   C31       1.0  0.883833304221355  0.04548601485837114  0.7614397594311287  1.0000
  C   C32       1.0  0.6105945784464182  0.95250271335313  0.28178740823537834  1.0000
  C   C33       1.0  0.7112635922908024  0.2474376680979744  0.4996541913748488  1.0000
  C   C34       1.0  0.7913872662618112  0.7511158496092544  0.009166178901344465  1.0000
  C   C35       1.0  0.0010228369856697267  0.44848980134230376  0.7725821223943864  1.0000
  C   C36       1.0  0.5021327272091917  0.5488844971585665  0.27319795459085877  1.0000
  C   C37       1.0  0.7870347561430981  0.24989319260612652  0.9989258985538705  1.0000
  C   C38       1.0  0.7084875265240299  0.745599096353762  0.4914579879384075  1.0000
  C   C39       1.0  0.5007358390591342  0.47168474361047746  0.7478894668279793  1.0000
  C   C40       1.0  0.002728166058909956  0.538105746597822  0.2512614295943335  1.0000
  C   C41       1.0  0.19422665998080854  0.7498525254597865  0.014495109390518436  1.0000
  C   C42       1.0  0.28896249243663114  0.25708579100852025  0.49968087851178644  1.0000
  C   C43       1.0  0.49197952509637344  0.9626102160685879  0.25172921577354285  1.0000
  C   C44       1.0  0.003596574553137444  0.03842768201742698  0.756131925807385  1.0000
  C   C45       1.0  0.28076404923524856  0.7575708688861882  0.48599271611999795  1.0000
  C   C46       1.0  0.19624592352278272  0.2491297467571717  0.9807607381002009  1.0000
  C   C47       1.0  0.9958778195538074  0.9569472267667403  0.23523193359974928  1.0000
  C   C48       1.0  0.5062183713925021  0.04088464215929709  0.7290987106908879  1.0000
  C   C49       1.0  0.6979485426313734  0.30637758119314346  0.44037589433680413  1.0000
  C   C50       1.0  0.8096090122262131  0.695761867474796  0.9478150156924995  1.0000
  C   C51       1.0  0.9436945304187392  0.429438442165221  0.7127349093876004  1.0000
  C   C52       1.0  0.5586591109383512  0.5606724681271212  0.20754237188618804  1.0000
  C   C53       1.0  0.7961800166264499  0.3067249457692021  0.06398084600348655  1.0000
  C   C54       1.0  0.6905324999606083  0.6908889978616312  0.5519294577531867  1.0000
  C   C55       1.0  0.5579786956343663  0.46708976555628895  0.8137830894033421  1.0000
  C   C56       1.0  0.9471020182044705  0.5476005700260076  0.3209715750259831  1.0000
  C   C57       1.0  0.17936870670045102  0.8074637522337368  0.9594501702736401  1.0000
  C   C58       1.0  0.30549085635761514  0.20220667007852944  0.4387390095987661  1.0000
  C   C59       1.0  0.4388148163819258  0.9374416130515102  0.18996970359286902  1.0000
  C   C60       1.0  0.05885354986381691  0.050496003473412605  0.6921907647395684  1.0000
  C   C61       1.0  0.29910088191014783  0.8151552301520885  0.5415919769932437  1.0000
  C   C62       1.0  0.1910742546715706  0.19501112421199915  0.04937842324249451  1.0000
  C   C63       1.0  0.05121660678470113  0.9325815226449461  0.271070672100983  1.0000
  C   C64       1.0  0.44772210443758725  0.05024878261521749  0.7886030635348927  1.0000
  C   C65       1.0  0.2900176322668053  0.7029725051830099  0.5566026948750545  1.0000
  C   C66       1.0  0.18617293206142083  0.3066581012059826  0.044367080291722705  1.0000
  C   C67       1.0  0.05959785679566625  0.5510312321313968  0.31691345047779773  1.0000
  C   C68       1.0  0.445926232122253  0.4559885467098777  0.8140007789568987  1.0000
  C   C69       1.0  0.18957425374885692  0.6954108405681915  0.94116744712725  1.0000
  C   C70       1.0  0.3042796785098881  0.31452643173894324  0.43731108962223963  1.0000
  C   C71       1.0  0.4482748412852289  0.5718740639873603  0.22094279197225902  1.0000
  C   C72       1.0  0.05819797362347647  0.432485938030357  0.7129797271309687  1.0000
  C   C73       1.0  0.8008737435366501  0.19507497990208203  0.05567231749999271  1.0000
  C   C74       1.0  0.6996265717702367  0.8020297087387566  0.552714795125684  1.0000
  C   C75       1.0  0.5598690496740725  0.05357373858570425  0.7990285947547033  1.0000
  C   C76       1.0  0.9411158487127989  0.9262128261813067  0.2671160849605803  1.0000
  C   C77       1.0  0.6980533819568551  0.19151561507468848  0.43281566360508206  1.0000
  C   C78       1.0  0.7952433949063032  0.8043531605521098  0.9368652494193901  1.0000
  C   C79       1.0  0.9471027477283669  0.0509175865783051  0.6957121485682171  1.0000
  C   C80       1.0  0.5512188138181463  0.9393238980094288  0.21290236369592683  1.0000
  C   C81       1.0  0.6733709229314845  0.3104896086688873  0.30970258666662626  1.0000
  C   C82       1.0  0.8265794651236696  0.6921074331438659  0.8129114392603636  1.0000
  C   C83       1.0  0.9444396737250782  0.3925869464397409  0.5995074884288807  1.0000
  C   C84       1.0  0.5602803905872387  0.5920936183272459  0.08943514094553352  1.0000
  C   C85       1.0  0.8184991343496489  0.3044952444327634  0.19273132031041712  1.0000
  C   C86       1.0  0.6617506873346438  0.6907037116516762  0.6712159373625777  1.0000
  C   C87       1.0  0.5589958034102221  0.4451707967224716  0.9427548583062527  1.0000
  C   C88       1.0  0.9479292060170937  0.5689481509761671  0.4472827528770365  1.0000
  C   C89       1.0  0.15824339914693494  0.8084419864484343  0.8282875777979639  1.0000
  C   C90       1.0  0.3312103054799839  0.20794591448543048  0.31187196662192457  1.0000
  C   C91       1.0  0.4418728445478971  0.8960524687108076  0.08059728514353026  1.0000
  C   C92       1.0  0.060246226813656226  0.07764809187521836  0.5649776484953769  1.0000
  C   C93       1.0  0.33058909770068157  0.8177814702814103  0.6704071652497271  1.0000
  C   C94       1.0  0.17831234557911282  0.1952180496409606  0.18673448056631345  1.0000
  C   C95       1.0  0.04856085890080491  0.8829330491551626  0.36604146177621494  1.0000
  C   C96       1.0  0.44468351196174627  0.07798617225577244  0.9112566301749069  1.0000
  C   C97       1.0  0.3130309934812313  0.7069986153253468  0.6848798958728091  1.0000
  C   C98       1.0  0.1712602534364805  0.30881507830269084  0.1785860906012517  1.0000
  C   C99       1.0  0.05791319133770841  0.5725890932170726  0.4500644016463944  1.0000
  C   C100      1.0  0.44810054025713664  0.4301931810711777  0.9408458557324668  1.0000
  C   C101      1.0  0.16672853379183844  0.6953664843424272  0.8103448573025267  1.0000
  C   C102      1.0  0.3266333464215191  0.31775025761090175  0.30756354014730536  1.0000
  C   C103      1.0  0.4509266884733839  0.6087357657721535  0.10925349625288133  1.0000
  C   C104      1.0  0.05561829300570568  0.39574205477572866  0.6007429629895185  1.0000
  C   C105      1.0  0.8253094242302792  0.19144878981773467  0.18686314521801778  1.0000
  C   C106      1.0  0.6740150694233995  0.8023613894261161  0.6813344496138591  1.0000
  C   C107      1.0  0.5564149588924153  0.08321930000277089  0.926274401955803  1.0000
  C   C108      1.0  0.9407616248846409  0.8737114552920392  0.3469371720544221  1.0000
  C   C109      1.0  0.6759648087895695  0.19690934598280702  0.30102120345800754  1.0000
  C   C110      1.0  0.8153584193879894  0.8041940406812693  0.8042980341854865  1.0000
  C   C111      1.0  0.9475544369683666  0.07722417967812585  0.5695998865457073  1.0000
  C   C112      1.0  0.5549173458161389  0.899147552245033  0.10163057707500622  1.0000
  C   C113      1.0  0.6646927978551428  0.2535312297333996  0.23686564845443564  1.0000
  C   C114      1.0  0.834291127010443  0.7488660149386561  0.7406938846639419  1.0000
  C   C115      1.0  0.00041437733849576777  0.37469813657845447  0.5449090590403219  1.0000
  C   C116      1.0  0.5053872542924951  0.6205117806550889  0.0406559337095446  1.0000
  C   C117      1.0  0.8306855626733891  0.24746519786348245  0.2578932332206581  1.0000
  C   C118      1.0  0.6559504886208122  0.7456041351854258  0.7432229908796811  1.0000
  C   C119      1.0  0.5055840816587572  0.42878946839866955  0.012377154649614308  1.0000
  C   C120      1.0  0.002550234433414067  0.5801844636962551  0.5239648696124288  1.0000
  C   C121      1.0  0.15300792428398716  0.7537618219863181  0.7564877199193735  1.0000
  C   C122      1.0  0.34183957252284825  0.2636013905492762  0.24246488443514205  1.0000
  C   C123      1.0  0.49998553982411265  0.8748894176372793  0.040180186967991915  1.0000
  C   C124      1.0  0.004414243461706692  0.08896534896936337  0.49717406560334987  1.0000
  C   C125      1.0  0.3305260746977248  0.76285379154482  0.7452187001264041  1.0000
  C   C126      1.0  0.16799473521531502  0.2537388291526176  0.250704717725611  1.0000
  C   C127      1.0  0.9944974335137361  0.8497028044814141  0.39700686561967063  1.0000
  C   C128      1.0  0.5001106053141283  0.09333935449827394  0.9833837090118034  1.0000
  N   N1        1.0  0.6396546704105566  0.2549152557592323  0.11534925757524504  1.0000
  N   N2        1.0  0.8553462386161418  0.7495977642939252  0.611328852783048  1.0000
  N   N3        1.0  0.9986994163083374  0.338091761043092  0.4319231140390512  1.0000
  N   N4        1.0  0.5078222262951383  0.6519172571673645  0.9197853314873378  1.0000
  N   N5        1.0  0.8516849613011306  0.2531514723528724  0.39442354231632326  1.0000
  N   N6        1.0  0.6303117669386125  0.7413515341956814  0.8706061953829336  1.0000
  N   N7        1.0  0.5148256291745333  0.40266683682954363  0.13608432998506648  1.0000
  N   N8        1.0  0.00030257214683282463  0.5979487109384168  0.6547571643108897  1.0000
  N   N9        1.0  0.13256567853795106  0.7589977014894634  0.6258725742551614  1.0000
  N   N10       1.0  0.3578425666394198  0.2660538959264093  0.1102161349161875  1.0000
  N   N11       1.0  0.5039951086753053  0.8320941542163801  0.9345325512193041  1.0000
  N   N12       1.0  0.0024468642895907533  0.11202888749213993  0.3713950794387369  1.0000
  N   N13       1.0  0.3551696533217691  0.7639991211330568  0.8761716873807159  1.0000
  N   N14       1.0  0.15914819404875724  0.2573127033629579  0.3851399628018221  1.0000
  N   N15       1.0  0.9975518530490868  0.7945947296997724  0.46769695195365835  1.0000
  N   N16       1.0  0.4920559251652044  0.12233489185859184  0.10878163058016112  1.0000
  O   O1        1.0  0.8359006410919789  0.4128954100085563  0.7460904082251055  1.0000
  O   O2        1.0  0.6654694908730729  0.571654392661294  0.2302974880702411  1.0000
  O   O3        1.0  0.8284388500576557  0.5912918407604474  0.9685836847401867  1.0000
  O   O4        1.0  0.682019722670674  0.4086839518718456  0.46648323141741044  1.0000
  O   O5        1.0  0.6628199476168077  0.44301334130355363  0.8054928719613786  1.0000
  O   O6        1.0  0.8466552751175157  0.5759066575323203  0.28071865460807177  1.0000
  O   O7        1.0  0.6787768368954635  0.5844510589164424  0.5167107109116621  1.0000
  O   O8        1.0  0.8105796075885127  0.41183600317654745  0.05579468953541237  1.0000
  O   O9        1.0  0.329076744912165  0.9276280095277143  0.2170130717661752  1.0000
  O   O10       1.0  0.16398843376563874  0.07039200172011409  0.7146340761876027  1.0000
  O   O11       1.0  0.3289646200218615  0.09567341244849022  0.4469582754837138  1.0000
  O   O12       1.0  0.18308990951438878  0.9164710792922243  0.9626314925133125  1.0000
  O   O13       1.0  0.15900627173421739  0.94030505375424  0.28340636206213615  1.0000
  O   O14       1.0  0.34268109465790225  0.07356993294595135  0.7637433304601136  1.0000
  O   O15       1.0  0.18055307160547204  0.08952528877077821  0.02173514457630851  1.0000
  O   O16       1.0  0.32617002286372154  0.9211381995734209  0.5213030831009997  1.0000
  O   O17       1.0  0.16736557302545305  0.5683172814488919  0.28065080712028156  1.0000
  O   O18       1.0  0.33672865597180734  0.4341355986258494  0.7807996368377427  1.0000
  O   O19       1.0  0.1744397057873279  0.4140692516923012  0.03249927473981776  1.0000
  O   O20       1.0  0.3153218821789391  0.5995697970300521  0.5611299150088663  1.0000
  O   O21       1.0  0.33968235781935713  0.5768588713539098  0.2178905263221457  1.0000
  O   O22       1.0  0.16824880335499656  0.4366651107101009  0.7045877590856281  1.0000
  O   O23       1.0  0.3221519916610554  0.42151705302506526  0.45373802238915517  1.0000
  O   O24       1.0  0.1879468270853303  0.5868249919503096  0.9467738627414912  1.0000
  O   O25       1.0  0.6643260297830191  0.07340514245340068  0.7787786058516212  1.0000
  O   O26       1.0  0.8340349167774895  0.9200410882323122  0.27036897564191215  1.0000
  O   O27       1.0  0.6857476827142827  0.9067935214294285  0.5331330867870782  1.0000
  O   O28       1.0  0.821925535536129  0.08791872673624256  0.030254798902167195  1.0000
  O   O29       1.0  0.8415436968076183  0.0789470760224107  0.709354797053834  1.0000
  O   O30       1.0  0.6587989767280189  0.9262640151862812  0.23047869105819063  1.0000
  O   O31       1.0  0.8162573407037911  0.9104824846735169  0.9588509847184464  1.0000
  O   O32       1.0  0.676507180180422  0.08392418296465912  0.46276707313865334  1.0000
  O   O33       1.0  0.7670556675806265  0.49670133573613373  0.8693746991388668  1.0000
  O   O34       1.0  0.7465349629719291  0.5069382480719316  0.37326667011995057  1.0000
  O   O35       1.0  0.7569820046647696  0.508545575710391  0.12255756642310771  1.0000
  O   O36       1.0  0.7519942317826493  0.4926859013072265  0.6340313137371097  1.0000
  O   O37       1.0  0.25021328483348254  0.003876175154386541  0.36494055058111075  1.0000
  O   O38       1.0  0.2444006564688308  0.01378417494862442  0.869537515428156  1.0000
  O   O39       1.0  0.259056517915646  0.007563018726186679  0.6127566362198206  1.0000
  O   O40       1.0  0.23962470545013995  0.9956238517195808  0.11990661173805547  1.0000
  O   O41       1.0  0.2422685636820465  0.5083859464865901  0.1320481539567477  1.0000
  O   O42       1.0  0.261441478221134  0.5007928288141187  0.6329754901298087  1.0000
  O   O43       1.0  0.2520550034627594  0.4909072697133225  0.8901949605675258  1.0000
  O   O44       1.0  0.2623748900676203  0.5137813493129981  0.3895829339782675  1.0000
  O   O45       1.0  0.7474984001788774  0.01034762362948795  0.6226377529894644  1.0000
  O   O46       1.0  0.7565102509797442  0.990466076475649  0.12965502168989887  1.0000
  O   O47       1.0  0.740691331089356  0.9871525199748729  0.3748684533359284  1.0000
  O   O48       1.0  0.7572140279755172  0.008524257929478755  0.8670723088349481  1.0000
  O   O49       1.0  0.7345611790567772  0.3634437441242366  0.634520444321447  1.0000
  O   O50       1.0  0.766565194469833  0.6350552595318916  0.12646963469122144  1.0000
  O   O51       1.0  0.8864302698582116  0.48356848872924696  0.8795514873429588  1.0000
  O   O52       1.0  0.6187048542754632  0.5045787500251208  0.3762472160541447  1.0000
  O   O53       1.0  0.7507581054954345  0.3657749979399764  0.8976816395931053  1.0000
  O   O54       1.0  0.7437515302867691  0.6367875146392606  0.37653556443920155  1.0000
  O   O55       1.0  0.6223310591143256  0.4886772754356033  0.6271165702716638  1.0000
  O   O56       1.0  0.8913748428202923  0.510660857211725  0.1345105099142301  1.0000
  O   O57       1.0  0.22261272948401478  0.8608000253025527  0.14035082009152672  1.0000
  O   O58       1.0  0.26735004116635663  0.13574114349045183  0.6027306370190686  1.0000
  O   O59       1.0  0.37916706138564343  0.9962785211673956  0.34483090981054637  1.0000
  O   O60       1.0  0.11615629573126787  0.014135683787015097  0.8711303489053001  1.0000
  O   O61       1.0  0.25311832494728465  0.8737653375573824  0.37793327671420024  1.0000
  O   O62       1.0  0.23499019383368364  0.14201442294785613  0.8699152423432048  1.0000
  O   O63       1.0  0.11090246826915315  0.9894599832943124  0.11269678818299474  1.0000
  O   O64       1.0  0.3904114491871032  0.018321848254760745  0.6071926343717267  1.0000
  O   O65       1.0  0.25906344052369074  0.6407382558993885  0.38470125762559565  1.0000
  O   O66       1.0  0.22950657048183157  0.3678719181379077  0.8703332612555632  1.0000
  O   O67       1.0  0.11799978558557837  0.509584142790683  0.13233608584644008  1.0000
  O   O68       1.0  0.38895290723526493  0.5011505322462162  0.6466680522450344  1.0000
  O   O69       1.0  0.23776840027541984  0.635433774247064  0.11432053760024613  1.0000
  O   O70       1.0  0.26054452211828744  0.36944873892549784  0.6143490659715051  1.0000
  O   O71       1.0  0.3889940087417192  0.5264339111522739  0.390907731077775  1.0000
  O   O72       1.0  0.1205238488702868  0.4948994333197404  0.8573909703535885  1.0000
  O   O73       1.0  0.761356901322299  0.136793781649331  0.8787892487640824  1.0000
  O   O74       1.0  0.744626818353064  0.8593255397108553  0.3773300342584048  1.0000
  O   O75       1.0  0.6190853274809437  0.006618878540196922  0.6344388289114206  1.0000
  O   O76       1.0  0.883073506157234  0.9858909146851754  0.12383351470662685  1.0000
  O   O77       1.0  0.736802611756611  0.1378248314979201  0.6099106457927568  1.0000
  O   O78       1.0  0.7449066776058557  0.8706494828649671  0.10214376321354217  1.0000
  O   O79       1.0  0.8788310617310423  0.013700595987535659  0.8665749328211549  1.0000
  O   O80       1.0  0.6118733107208769  0.9805223218015495  0.3939753451714488  1.0000
