data_image0
_chemical_formula_structural       Al16H96C128N16O80
_chemical_formula_sum              "Al16 H96 C128 N16 O80"
_cell_length_a       21.6116
_cell_length_b       21.61518
_cell_length_c       10.18042
_cell_angle_alpha    89.73663999999998
_cell_angle_beta     89.71647
_cell_angle_gamma    90.60553000000002

_space_group_name_H-M_alt    "P 1"
_space_group_IT_number       1

loop_
  _space_group_symop_operation_xyz
  'x, y, z'

loop_
  _atom_site_type_symbol
  _atom_site_label
  _atom_site_symmetry_multiplicity
  _atom_site_fract_x
  _atom_site_fract_y
  _atom_site_fract_z
  _atom_site_occupancy
  Al  Al1       1.0  0.745868173805721  0.42721314770514024  0.722938426967547  1.0000
  Al  Al2       1.0  0.7487734339088556  0.5716270186449097  0.2301958857942226  1.0000
  Al  Al3       1.0  0.8168146008197118  0.5065421198462976  0.973245065496373  1.0000
  Al  Al4       1.0  0.6791495624899554  0.4977660612494365  0.46532398729607294  1.0000
  Al  Al5       1.0  0.24842506179141677  0.9253185528127014  0.28126824971048414  1.0000
  Al  Al6       1.0  0.25732363283026993  0.07090003811119899  0.8011155096101394  1.0000
  Al  Al7       1.0  0.31941582004260977  0.9933265563233219  0.535042468528814  1.0000
  Al  Al8       1.0  0.18025354831689264  0.0013058390036391199  0.044559903717749316  1.0000
  Al  Al9       1.0  0.24898549372717924  0.5650084554683938  0.22582279055586835  1.0000
  Al  Al10      1.0  0.2480902719115879  0.42808388136479114  0.72886703809131  1.0000
  Al  Al11      1.0  0.17499744121436006  0.49537244841561273  0.9685679111360698  1.0000
  Al  Al12      1.0  0.3197157326012169  0.4958063099499834  0.46624226723846357  1.0000
  Al  Al13      1.0  0.7543893349274567  0.0740277095073684  0.7758785466643079  1.0000
  Al  Al14      1.0  0.7525872654807293  0.9311215070966422  0.281952679293337  1.0000
  Al  Al15      1.0  0.6828935271910563  0.001149193086710243  0.5313162760515948  1.0000
  Al  Al16      1.0  0.8184240233488661  0.003968581095304957  0.04520355327551125  1.0000
  H   H1        1.0  0.6249190239228088  0.2684607889127079  0.05242050440218638  1.0000
  H   H2        1.0  0.8577836313732876  0.743268753525898  0.5653408815682025  1.0000
  H   H3        1.0  0.9622811503020514  0.3392691243382615  0.3543331700196954  1.0000
  H   H4        1.0  0.5348151887548622  0.6814225434773398  0.8803982528702115  1.0000
  H   H5        1.0  0.8348171552476251  0.2993466601720039  0.41795772093799577  1.0000
  H   H6        1.0  0.6604434382449251  0.7011089763168871  0.925643376115837  1.0000
  H   H7        1.0  0.5363114347893635  0.3922310217824336  0.13433220569472515  1.0000
  H   H8        1.0  0.9496317793433234  0.59427605236205  0.6539558164243707  1.0000
  H   H9        1.0  0.1124522652872198  0.8033108392987134  0.5932195930798513  1.0000
  H   H10       1.0  0.41902032371629233  0.19665767512038607  0.15774800533205474  1.0000
  H   H11       1.0  0.47970977033864737  0.8951450953172708  0.8368266315741827  1.0000
  H   H12       1.0  0.0367192008525953  0.1300354260311606  0.37184816942184334  1.0000
  H   H13       1.0  0.35416296192280516  0.7636811278905683  0.9246058115081458  1.0000
  H   H14       1.0  0.14472972550178662  0.2409774012713249  0.4468320616714772  1.0000
  H   H15       1.0  0.03447386087737257  0.8320270299530234  0.6229928545796793  1.0000
  H   H16       1.0  0.4719829694089328  0.09046382232751889  0.20235144477850592  1.0000
  H   H17       1.0  0.3414386470905725  0.6867313459058907  0.9165340645485471  1.0000
  H   H18       1.0  0.14207160020802456  0.3168349611474914  0.4315144112635714  1.0000
  H   H19       1.0  0.02000974450134655  0.5991259519945393  0.6686526883499568  1.0000
  H   H20       1.0  0.46982211474485025  0.41944779958540657  0.15452657085604368  1.0000
  H   H21       1.0  0.1011182510810978  0.7262606190595641  0.6131250843254055  1.0000
  H   H22       1.0  0.4252846158934036  0.2765041638257912  0.14270440298015916  1.0000
  H   H23       1.0  0.4569888207544153  0.6858072864635516  0.8987048036771104  1.0000
  H   H24       1.0  0.03830230794684808  0.34018667947792436  0.35837207586079206  1.0000
  H   H25       1.0  0.8665478707207771  0.22930361387350906  0.4196634983314366  1.0000
  H   H26       1.0  0.6520211425385246  0.7724517868599206  0.9307131413821774  1.0000
  H   H27       1.0  0.5402828532830978  0.11935848980193961  0.1922160664295647  1.0000
  H   H28       1.0  0.9633279402714822  0.8171147197479136  0.6056371410792267  1.0000
  H   H29       1.0  0.6605922045321788  0.20306242335069025  0.046285168161796175  1.0000
  H   H30       1.0  0.831924021842548  0.8102333008241741  0.5936815561823614  1.0000
  H   H31       1.0  0.9608923400356013  0.11869963992842734  0.3726828212207128  1.0000
  H   H32       1.0  0.5529651559025647  0.8915236428214394  0.8423943602699482  1.0000
  H   H33       1.0  0.7383324285408964  0.2472820325107883  0.5920469493989228  1.0000
  H   H34       1.0  0.7677786998418556  0.746450990627477  0.10973153077203737  1.0000
  H   H35       1.0  0.9834863969227119  0.4771851974363869  0.8518084511608828  1.0000
  H   H36       1.0  0.5012884803313636  0.5009074990280249  0.3060260416156109  1.0000
  H   H37       1.0  0.7610417354389194  0.25617707407010526  0.901503047429221  1.0000
  H   H38       1.0  0.7318722089053357  0.7524904407883486  0.389120448291951  1.0000
  H   H39       1.0  0.5018302151474753  0.48280535433294514  0.6116348619467783  1.0000
  H   H40       1.0  0.9910065291386831  0.51147741239599  0.1332968483160054  1.0000
  H   H41       1.0  0.22283294752115157  0.7436838565101546  0.11838331334076801  1.0000
  H   H42       1.0  0.2542718350583414  0.2350149997078281  0.5937954332840267  1.0000
  H   H43       1.0  0.4983275765423198  0.9785535395102979  0.3672600505931852  1.0000
  H   H44       1.0  7.752053853904428e-05  0.01632177140074036  0.8864830684193533  1.0000
  H   H45       1.0  0.2760027888150078  0.7510674928030242  0.38373728205146157  1.0000
  H   H46       1.0  0.24478055615581046  0.250272091177669  0.91886548870503  1.0000
  H   H47       1.0  0.002675499999782449  0.004738375701982989  0.2021057105488756  1.0000
  H   H48       1.0  0.5041135089926094  0.00012091726229513393  0.687282738178992  1.0000
  H   H49       1.0  0.6529618574159158  0.34122243835262533  0.2607448964324618  1.0000
  H   H50       1.0  0.8467231704074867  0.6669007346371237  0.7582442724198633  1.0000
  H   H51       1.0  0.8985416263141274  0.40250339743878205  0.5160453821598512  1.0000
  H   H52       1.0  0.5990346023411368  0.6183635940959101  0.040860797366936784  1.0000
  H   H53       1.0  0.8424196853570494  0.36261617090778264  0.21344394420947455  1.0000
  H   H54       1.0  0.6703260781264486  0.6401147262964386  0.7083069556194849  1.0000
  H   H55       1.0  0.6026271808995408  0.4112521776804974  0.9517322390730487  1.0000
  H   H56       1.0  0.896948927149686  0.5750370060556569  0.4649505314231106  1.0000
  H   H57       1.0  0.13910935836148552  0.8538546272210674  0.8150218497587773  1.0000
  H   H58       1.0  0.3689559379706044  0.1396000905126598  0.3209947897310496  1.0000
  H   H59       1.0  0.4098603771230594  0.8977613885899637  0.02910309098940543  1.0000
  H   H60       1.0  0.10457820838365244  0.10211740981979792  0.5741142021993236  1.0000
  H   H61       1.0  0.34592409326612034  0.8286407528581428  0.7390863815128055  1.0000
  H   H62       1.0  0.1682599206101708  0.1637032643411897  0.26722108206673933  1.0000
  H   H63       1.0  0.09894182786907715  0.895168738568673  0.47245469343099344  1.0000
  H   H64       1.0  0.4049440110719317  0.09416963614112855  0.9886412498379885  1.0000
  H   H65       1.0  0.32877266861261617  0.6288687243754529  0.7029825554996997  1.0000
  H   H66       1.0  0.1467426913345663  0.35575178430955745  0.206007427335502  1.0000
  H   H67       1.0  0.09328665807523773  0.603870675002194  0.43669293977575785  1.0000
  H   H68       1.0  0.40350789443533264  0.4067342390738212  0.9407935855642274  1.0000
  H   H69       1.0  0.1610447009390901  0.6535394085211195  0.7742796298008618  1.0000
  H   H70       1.0  0.377643270420911  0.33437778036646965  0.3273292353131599  1.0000
  H   H71       1.0  0.40069612662392085  0.6129109327866151  0.032613531009432824  1.0000
  H   H72       1.0  0.0960929313113106  0.4036318053410723  0.5309542020932269  1.0000
  H   H73       1.0  0.8371225019931212  0.16519294125669282  0.23624048007168252  1.0000
  H   H74       1.0  0.6596778889620917  0.8378328238782414  0.7368654740083611  1.0000
  H   H75       1.0  0.6052886680025955  0.08639064574035146  0.9870721870479306  1.0000
  H   H76       1.0  0.8969141058238794  0.8991454759700696  0.48078286794224473  1.0000
  H   H77       1.0  0.6673804154124396  0.14075963914771436  0.27836035569527723  1.0000
  H   H78       1.0  0.8179492119401299  0.8659067593479468  0.7940078168087058  1.0000
  H   H79       1.0  0.9029841529593765  0.09308741679700366  0.5558811431782437  1.0000
  H   H80       1.0  0.6056480922415272  0.89503710858924  0.06281176905526648  1.0000
  H   H81       1.0  0.2639837584604917  0.5264448149202995  0.8279883396308072  1.0000
  H   H82       1.0  0.22798421046397588  0.5220187897389961  0.6103225773896116  1.0000
  H   H83       1.0  0.22218250951754112  0.4785904369704666  0.3562017283396117  1.0000
  H   H84       1.0  0.2708689796157096  0.4781101081824284  0.07283157583437325  1.0000
  H   H85       1.0  0.7143644383020061  0.5027259896286495  0.047287630265126945  1.0000
  H   H86       1.0  0.7258445925002392  0.47173221500818935  0.26640814598254453  1.0000
  H   H87       1.0  0.7809436569059176  0.47804512547726175  0.528279039597416  1.0000
  H   H88       1.0  0.7463601271809553  0.5291826755196097  0.7865252339757438  1.0000
  H   H89       1.0  0.24224882120988678  0.9699277727402096  0.8684751241604618  1.0000
  H   H90       1.0  0.2826376882444702  0.990868615284257  0.10550281502699264  1.0000
  H   H91       1.0  0.23560662934242443  0.028133758713565587  0.37477963177025647  1.0000
  H   H92       1.0  0.21951205559506676  0.9977098406676778  0.6226556996175507  1.0000
  H   H93       1.0  0.7856785366123771  0.9989495875082499  0.608123763785491  1.0000
  H   H94       1.0  0.7184120081550953  0.9947811641366349  0.11216393246149206  1.0000
  H   H95       1.0  0.7521542772465795  0.9763176832848924  0.8572713968919737  1.0000
  H   H96       1.0  0.7445373086705374  0.032063436097096165  0.3439726494041549  1.0000
  C   C1        1.0  0.7069512629152348  0.3601837031415891  0.49715164165009557  1.0000
  C   C2        1.0  0.7955310048719185  0.6421448615302925  0.002417084679506645  1.0000
  C   C3        1.0  0.8806603834930873  0.4548834802689069  0.7452190252678326  1.0000
  C   C4        1.0  0.6155671685432568  0.5472248555152258  0.23583410043662004  1.0000
  C   C5        1.0  0.7921080803815436  0.3706903062040726  0.9557099122371671  1.0000
  C   C6        1.0  0.7074982997980158  0.6333834180326429  0.4703698934682922  1.0000
  C   C7        1.0  0.6151312482931593  0.44998928426606666  0.6934207394003344  1.0000
  C   C8        1.0  0.8794263193680664  0.538828268452717  0.2137632556850574  1.0000
  C   C9        1.0  0.19479457165546465  0.8648910755959717  0.05474569880960937  1.0000
  C   C10       1.0  0.301892430522176  0.1263684765278322  0.5530242924380916  1.0000
  C   C11       1.0  0.38412181081877433  0.946557641151203  0.2769557024857378  1.0000
  C   C12       1.0  0.12067775927806884  0.05033537790320796  0.8088538225614788  1.0000
  C   C13       1.0  0.2974960051242799  0.8604115688535868  0.5061189911653305  1.0000
  C   C14       1.0  0.21841400258846036  0.1368261009545675  0.026634015921758625  1.0000
  C   C15       1.0  0.1136522617741987  0.9644624726320445  0.2736885419266714  1.0000
  C   C16       1.0  0.3886984340102553  0.030263128123140772  0.7688692361582214  1.0000
  C   C17       1.0  0.29420839754229944  0.628833813167968  0.44914928765815376  1.0000
  C   C18       1.0  0.1951484842423652  0.36014220404720226  0.9588429465543726  1.0000
  C   C19       1.0  0.11086120998445005  0.5428875702974334  0.2093604753289818  1.0000
  C   C20       1.0  0.38276377925702987  0.45039209051693735  0.7016183593139351  1.0000
  C   C21       1.0  0.20724910096655633  0.633826397700524  0.9922160120452255  1.0000
  C   C22       1.0  0.292772300176866  0.3575405911021274  0.5131773145315701  1.0000
  C   C23       1.0  0.380182551319329  0.5401234423326899  0.22779343542589442  1.0000
  C   C24       1.0  0.11064149003198417  0.4578653704462268  0.7478336191217274  1.0000
  C   C25       1.0  0.7921865097336773  0.14098388383880703  0.01356857696705771  1.0000
  C   C26       1.0  0.7099319571928083  0.8654494231716972  0.501569649626784  1.0000
  C   C27       1.0  0.6172276406605162  0.037707904991775065  0.7634555498446809  1.0000
  C   C28       1.0  0.8817021266179301  0.9628546989456738  0.2643244845059929  1.0000
  C   C29       1.0  0.7066345762920494  0.13638520176314514  0.5387124537778392  1.0000
  C   C30       1.0  0.789878554110321  0.8730446015561115  0.043462194997420975  1.0000
  C   C31       1.0  0.8871638664000285  0.04984169736419033  0.8131392926760334  1.0000
  C   C32       1.0  0.6180520470400467  0.9539441344386056  0.297767692945131  1.0000
  C   C33       1.0  0.7194128594375601  0.2477164312701283  0.49508091019354944  1.0000
  C   C34       1.0  0.790604144603074  0.7566791618176434  0.017503970133392943  1.0000
  C   C35       1.0  0.9927204457450016  0.46099146149681985  0.7501783210325531  1.0000
  C   C36       1.0  0.4995396520698793  0.5365290445510359  0.22637541310807616  1.0000
  C   C37       1.0  0.784547876917033  0.2569514163236892  0.9981894394663733  1.0000
  C   C38       1.0  0.7144135768909864  0.7504464844888769  0.48736504378837336  1.0000
  C   C39       1.0  0.4955578935721691  0.4627481671838255  0.7104360494712758  1.0000
  C   C40       1.0  0.9944247117040997  0.5378444302714731  0.22832619095275752  1.0000
  C   C41       1.0  0.2055496616549106  0.7490442123476428  0.017067258044653425  1.0000
  C   C42       1.0  0.289266100104137  0.24135463902135407  0.5205139550313057  1.0000
  C   C43       1.0  0.5002096456671069  0.9599174126883492  0.27040731777295185  1.0000
  C   C44       1.0  0.0002850174157065233  0.0475721778269412  0.8071597620470644  1.0000
  C   C45       1.0  0.2932717377716387  0.7426240464552838  0.4889372980723914  1.0000
  C   C46       1.0  0.22055060509029462  0.24900343963933277  0.012030002816438623  1.0000
  C   C47       1.0  0.9984499572496116  0.975448344227531  0.28677897158553994  1.0000
  C   C48       1.0  0.5023456914893214  0.027047316987221865  0.7752258787821963  1.0000
  C   C49       1.0  0.6986170523543909  0.3005963091056413  0.42980394043887726  1.0000
  C   C50       1.0  0.8080655133983126  0.7065990008779454  0.94199751649481  1.0000
  C   C51       1.0  0.9401755780136123  0.4466949658184849  0.672869560499225  1.0000
  C   C52       1.0  0.5562136338865324  0.5581764455060664  0.17042098483048956  1.0000
  C   C53       1.0  0.8068434184689163  0.31595115236914745  0.038697727709330144  1.0000
  C   C54       1.0  0.7010349206951267  0.6916892106863964  0.5452708108041628  1.0000
  C   C55       1.0  0.5538182748921204  0.4460903488670649  0.7660394507406564  1.0000
  C   C56       1.0  0.9378946790637385  0.5456637371153845  0.29006873585883164  1.0000
  C   C57       1.0  0.1881393378440596  0.806385085623802  0.9691890008321009  1.0000
  C   C58       1.0  0.3152627364399985  0.18592520090972625  0.4755068785324749  1.0000
  C   C59       1.0  0.44425495822471633  0.9422497749768218  0.20565724707023034  1.0000
  C   C60       1.0  0.05880206133875636  0.05961020168067639  0.7470754511956583  1.0000
  C   C61       1.0  0.3074028537558549  0.7967463597953995  0.5589693040491305  1.0000
  C   C62       1.0  0.21032457842414665  0.19874190184052765  0.09533894014379936  1.0000
  C   C63       1.0  0.05368334471270171  0.9522079680684279  0.34058594779938667  1.0000
  C   C64       1.0  0.4479455731656016  0.042771198243957136  0.8360096710052988  1.0000
  C   C65       1.0  0.30296017736536734  0.6828846064295883  0.5327575494195941  1.0000
  C   C66       1.0  0.1954908045910678  0.30683740804085574  0.05109415526806604  1.0000
  C   C67       1.0  0.04951529244031808  0.5586151508720243  0.2816756961237678  1.0000
  C   C68       1.0  0.4411569777173582  0.44760991477421236  0.7709297467792318  1.0000
  C   C69       1.0  0.19431151677927908  0.6963763071396516  0.9410728270423883  1.0000
  C   C70       1.0  0.31100153830783844  0.29607379517897553  0.4677102257787996  1.0000
  C   C71       1.0  0.4416976922221491  0.5541742715942789  0.17419874709577143  1.0000
  C   C72       1.0  0.049028856056608575  0.44430559218403987  0.6844517798947638  1.0000
  C   C73       1.0  0.7992990711547401  0.2032796625100985  0.06720120191367174  1.0000
  C   C74       1.0  0.6958564315931742  0.8044933647394469  0.5582489291481842  1.0000
  C   C75       1.0  0.5552931831020816  0.044814077412100965  0.8364473516422208  1.0000
  C   C76       1.0  0.9432068821788229  0.950492629135906  0.3369365957700087  1.0000
  C   C77       1.0  0.7006855749013332  0.18988814198875023  0.44838827990166336  1.0000
  C   C78       1.0  0.7961908234099572  0.8149709002322103  0.9633749534379744  1.0000
  C   C79       1.0  0.9465796493424006  0.06479353471306085  0.7457065370211308  1.0000
  C   C80       1.0  0.5586742521002416  0.9378075128603288  0.22849438337206973  1.0000
  C   C81       1.0  0.6717411468628927  0.2970161672038617  0.30543731952414893  1.0000
  C   C82       1.0  0.832649922076664  0.7077032033105777  0.8173477425817761  1.0000
  C   C83       1.0  0.9406099935793262  0.41512985156766574  0.5547080623736426  1.0000
  C   C84       1.0  0.5554400950790693  0.6000713346239546  0.0668483625612501  1.0000
  C   C85       1.0  0.8357972582290847  0.31679295029861126  0.1634212605938883  1.0000
  C   C86       1.0  0.677548744513916  0.6879148014343978  0.6714229935144356  1.0000
  C   C87       1.0  0.5576963357317813  0.4252068787898121  0.898712276036161  1.0000
  C   C88       1.0  0.9378972962136792  0.5765996543163153  0.4141293004594111  1.0000
  C   C89       1.0  0.1542571575417647  0.81038384245542  0.8492014612942905  1.0000
  C   C90       1.0  0.3505143045737972  0.18308760953523295  0.3613027631741991  1.0000
  C   C91       1.0  0.4490023009460507  0.9120378912485666  0.086727347413138  1.0000
  C   C92       1.0  0.05849639303911201  0.08901899967814494  0.6212107632514052  1.0000
  C   C93       1.0  0.3342257790924971  0.7885426977178853  0.6814846276263583  1.0000
  C   C94       1.0  0.18081091840521962  0.20558927160532028  0.21476897804337555  1.0000
  C   C95       1.0  0.05348111053813391  0.9134710493643505  0.44399953760043076  1.0000
  C   C96       1.0  0.44728173722077685  0.07397749674241232  0.9537615685328469  1.0000
  C   C97       1.0  0.3211386487251764  0.675866516820559  0.6640862272802504  1.0000
  C   C98       1.0  0.16754362761016794  0.31358824550630227  0.17445277390527608  1.0000
  C   C99       1.0  0.050612633092047256  0.5866965941998115  0.4079533048413662  1.0000
  C   C100      1.0  0.44438637977069184  0.423448196527727  0.8975373288608229  1.0000
  C   C101      1.0  0.16731177898205626  0.6997674180876089  0.8129199577693272  1.0000
  C   C102      1.0  0.35463554788857077  0.29348429167173884  0.36531585612570333  1.0000
  C   C103      1.0  0.4432114439111901  0.5977160173817468  0.07046501086381474  1.0000
  C   C104      1.0  0.050408790050827344  0.41820756925047925  0.5559961361731496  1.0000
  C   C105      1.0  0.8282453134122657  0.20760441341586192  0.18952238658914208  1.0000
  C   C106      1.0  0.6706529835943086  0.7981977625018272  0.6814964938150437  1.0000
  C   C107      1.0  0.5578544184322386  0.0739015504094329  0.9582820775904087  1.0000
  C   C108      1.0  0.9408396383015258  0.9145440596434794  0.44660395482230725  1.0000
  C   C109      1.0  0.6757273300833392  0.18688256667594094  0.3146547803995425  1.0000
  C   C110      1.0  0.8147888150872548  0.8184581699737906  0.8327979229934124  1.0000
  C   C111      1.0  0.9458759974478788  0.08739122415603075  0.6143730360655699  1.0000
  C   C112      1.0  0.5622167035214672  0.909651998539559  0.10332895185272409  1.0000
  C   C113      1.0  0.6655015156604648  0.24018595107514026  0.237425366162345  1.0000
  C   C114      1.0  0.8354753714616046  0.7675980460801962  0.7572575978483663  1.0000
  C   C115      1.0  0.9951681345352411  0.4018601410993034  0.48489071260686245  1.0000
  C   C116      1.0  0.4985486396218604  0.6181450277664996  0.01843418207859512  1.0000
  C   C117      1.0  0.8444050334453063  0.26517625655437027  0.24169451142675366  1.0000
  C   C118      1.0  0.6619372054768426  0.7419751070549706  0.7455436647407192  1.0000
  C   C119      1.0  0.5014332010774147  0.41442318725784427  0.9603261975471469  1.0000
  C   C120      1.0  0.9931217707379169  0.5894135292368612  0.47940414942754583  1.0000
  C   C121      1.0  0.1508157389256418  0.7582425707992271  0.7667834126385161  1.0000
  C   C122      1.0  0.37047756439765867  0.24014947465022177  0.29884140031329354  1.0000
  C   C123      1.0  0.5067087215133297  0.8995930265774216  0.025037654197132803  1.0000
  C   C124      1.0  0.0025874254187380134  0.10203503705253782  0.5497453609734774  1.0000
  C   C125      1.0  0.34076295028113274  0.7276958875395892  0.7350567584103742  1.0000
  C   C126      1.0  0.16174173046744866  0.26495881633331936  0.2616011961672791  1.0000
  C   C127      1.0  0.9977511163305995  0.8960054389247989  0.5074403246736704  1.0000
  C   C128      1.0  0.5030597402719945  0.09218527026365445  0.018291674674313363  1.0000
  N   N1        1.0  0.6422420494737605  0.23490341146009674  0.11034092930436362  1.0000
  N   N2        1.0  0.8603587892287988  0.7768351286681544  0.6283981353488008  1.0000
  N   N3        1.0  0.9991814706245029  0.366894623564864  0.3699579700420819  1.0000
  N   N4        1.0  0.49476581423359084  0.6570126875942939  0.9073499783111318  1.0000
  N   N5        1.0  0.8617177946040084  0.26897859473850555  0.37379939421320124  1.0000
  N   N6        1.0  0.6376465138512009  0.7348593528332691  0.8743967088895505  1.0000
  N   N7        1.0  0.4944391871990793  0.39130168138620447  0.08843912371504757  1.0000
  N   N8        1.0  0.9844745749561331  0.6149554752137137  0.6073529654410348  1.0000
  N   N9        1.0  0.12736480641283265  0.7614018818607695  0.6313822971307227  1.0000
  N   N10       1.0  0.3982788040170508  0.23873064734014532  0.176691066161985  1.0000
  N   N11       1.0  0.5120385926662403  0.8771998860434421  0.8984853508943575  1.0000
  N   N12       1.0  0.0009742739290342726  0.12319563529407758  0.42772662658743205  1.0000
  N   N13       1.0  0.35981534334112814  0.7238824122092012  0.8661321864611327  1.0000
  N   N14       1.0  0.13213784326788505  0.2748143249329429  0.383668693909179  1.0000
  N   N15       1.0  0.9950019591598235  0.8523317458536248  0.613880953668567  1.0000
  N   N16       1.0  0.500986109002569  0.11499539113667906  0.1471862594997587  1.0000
  O   O1        1.0  0.8319399278710605  0.4282927263778293  0.7050419796964811  1.0000
  O   O2        1.0  0.6643984555419977  0.5752957926965723  0.18568058030317186  1.0000
  O   O3        1.0  0.813875162839542  0.5980284626506626  0.931191258414566  1.0000
  O   O4        1.0  0.6804303468821381  0.4076583616181465  0.4414770913813212  1.0000
  O   O5        1.0  0.660040189430759  0.42252340114415654  0.7408989113831985  1.0000
  O   O6        1.0  0.8343794072225522  0.5674377945132413  0.2588083992708193  1.0000
  O   O7        1.0  0.6758328108932662  0.5870467245971056  0.508954235226151  1.0000
  O   O8        1.0  0.8113922382745767  0.4232835562593161  0.9945897006581969  1.0000
  O   O9        1.0  0.3379459445670608  0.9183971325727897  0.22946066047601255  1.0000
  O   O10       1.0  0.16779951476504018  0.07360130864197223  0.7529135747722915  1.0000
  O   O11       1.0  0.32566363004461074  0.07787436312034665  0.5011637257791014  1.0000
  O   O12       1.0  0.16586165349032547  0.9164061655213733  0.01613367761590978  1.0000
  O   O13       1.0  0.15603602590743076  0.931066190215939  0.3128293519427564  1.0000
  O   O14       1.0  0.34381637095351625  0.06253501237591229  0.8089159697601181  1.0000
  O   O15       1.0  0.1914628263059088  0.09282717613513548  0.08493412956837053  1.0000
  O   O16       1.0  0.32324974618796454  0.9054196653471586  0.5630336288773641  1.0000
  O   O17       1.0  0.15898083950223513  0.5611806256464528  0.2645542877879327  1.0000
  O   O18       1.0  0.340555066091265  0.41847054626057645  0.7517196259782506  1.0000
  O   O19       1.0  0.16307720901089395  0.4082158509291563  0.9974307461851081  1.0000
  O   O20       1.0  0.3259161869366092  0.5808148094607904  0.4832467268193205  1.0000
  O   O21       1.0  0.33308876960164563  0.5662549291629226  0.1791251996470235  1.0000
  O   O22       1.0  0.16003129323787993  0.43170095011865456  0.7067651133554752  1.0000
  O   O23       1.0  0.321520169739386  0.40140976591610833  0.45626496754404117  1.0000
  O   O24       1.0  0.1922076317531065  0.5876466142017952  0.9266845418367503  1.0000
  O   O25       1.0  0.6664968859689769  0.0662579036797075  0.8060145530336689  1.0000
  O   O26       1.0  0.8389618259917917  0.9261655961168123  0.29564878653066257  1.0000
  O   O27       1.0  0.6832434958906721  0.9106609949561165  0.5552078852977019  1.0000
  O   O28       1.0  0.8150308865646287  0.0961148381494765  0.07576499492515897  1.0000
  O   O29       1.0  0.8420397888261446  0.07547353778970839  0.7529486478076404  1.0000
  O   O30       1.0  0.6632473595071464  0.9225766650128655  0.25597832309233937  1.0000
  O   O31       1.0  0.8237508174866568  0.9199221612801395  0.01591358142640309  1.0000
  O   O32       1.0  0.6752469461878089  0.08862927037022052  0.5028175974377469  1.0000
  O   O33       1.0  0.7546916910951617  0.49469958735046937  0.8447246901437989  1.0000
  O   O34       1.0  0.7340692374632731  0.502586532549986  0.32892238214412756  1.0000
  O   O35       1.0  0.752855187401867  0.5120190418582224  0.0946216683297784  1.0000
  O   O36       1.0  0.7454551617368695  0.48848559900011707  0.5825700394158836  1.0000
  O   O37       1.0  0.25511549236302244  0.9896354502844737  0.40682065846763105  1.0000
  O   O38       1.0  0.24247933844073422  0.006931638077583872  0.9207903819521907  1.0000
  O   O39       1.0  0.25927086986164816  0.9976140219248439  0.6698289773476247  1.0000
  O   O40       1.0  0.24563303206278064  0.9901303752323168  0.16000538073839882  1.0000
  O   O41       1.0  0.23328871312838353  0.49933173465350117  0.1100111985685666  1.0000
  O   O42       1.0  0.2574611305545717  0.48802914307443007  0.599694274812235  1.0000
  O   O43       1.0  0.2452115169178285  0.48870147459702373  0.8554613306309536  1.0000
  O   O44       1.0  0.2559279999843479  0.504003692919706  0.35208387010484005  1.0000
  O   O45       1.0  0.7457029898878093  0.009139023881591542  0.6531944245884286  1.0000
  O   O46       1.0  0.7553528259502903  0.9980997091149338  0.168263998559185  1.0000
  O   O47       1.0  0.7487772387159192  0.9986780585375358  0.409075936662647  1.0000
  O   O48       1.0  0.762586677166422  0.012387243423050573  0.9046260200435536  1.0000
  O   O49       1.0  0.74274161099265  0.3579744948438559  0.5969477580162492  1.0000
  O   O50       1.0  0.7639060131490051  0.6376267693597031  0.10653724413184584  1.0000
  O   O51       1.0  0.8839691300654343  0.4902017423028611  0.8466110713219527  1.0000
  O   O52       1.0  0.6159353626032542  0.5106576627632504  0.334414141692496  1.0000
  O   O53       1.0  0.7582743756230718  0.36473211740106803  0.8524512262957881  1.0000
  O   O54       1.0  0.7403441577693958  0.6356843456890379  0.365732794507635  1.0000
  O   O55       1.0  0.6186329626522312  0.4875118136666159  0.5962184864206901  1.0000
  O   O56       1.0  0.8771964083775147  0.5111700879172932  0.1043764848447515  1.0000
  O   O57       1.0  0.23142795773287395  0.8581587344358249  0.15398235090135373  1.0000
  O   O58       1.0  0.26743082032478377  0.12891818884300835  0.6518362155235281  1.0000
  O   O59       1.0  0.38039552998292714  0.976830837241346  0.38674697480276465  1.0000
  O   O60       1.0  0.11623453851986972  0.022209955736149336  0.919712325940211  1.0000
  O   O61       1.0  0.2595762878151267  0.8661270668721472  0.4120755431535674  1.0000
  O   O62       1.0  0.25690178528484636  0.13165397082044383  0.9314265841892865  1.0000
  O   O63       1.0  0.12149570257480573  0.0025688417693707777  0.17397734542904908  1.0000
  O   O64       1.0  0.3852705457731597  0.9965449990227379  0.6656827404546474  1.0000
  O   O65       1.0  0.2630860926945758  0.6333073711947208  0.34217274602294756  1.0000
  O   O66       1.0  0.22908181278678227  0.3594106770433072  0.8555072178112725  1.0000
  O   O67       1.0  0.10848244877775735  0.5215539822681269  0.09190297715687985  1.0000
  O   O68       1.0  0.3803167259548141  0.4841870196260599  0.5988823446036373  1.0000
  O   O69       1.0  0.23291328486761348  0.6306924954486406  0.10516067783729684  1.0000
  O   O70       1.0  0.2530881684107043  0.36273527452676824  0.6033517789525319  1.0000
  O   O71       1.0  0.37781444647596485  0.4967004379442703  0.31774997552350687  1.0000
  O   O72       1.0  0.11014423137969324  0.4953420293032957  0.8419760063931576  1.0000
  O   O73       1.0  0.7571030191667756  0.1360499208836808  0.906777404255746  1.0000
  O   O74       1.0  0.7484765642135025  0.8662093327047548  0.4048104376972781  1.0000
  O   O75       1.0  0.6159792023902856  0.0015619647979623118  0.6683239821534643  1.0000
  O   O76       1.0  0.8787397074816246  0.0031512545641976253  0.17817635444576385  1.0000
  O   O77       1.0  0.7430273123141303  0.13866369908042062  0.6409954620005635  1.0000
  O   O78       1.0  0.7549025182475586  0.8691244552369152  0.14237467027976136  1.0000
  O   O79       1.0  0.8876460727402876  0.020563427208433793  0.9206433148850199  1.0000
  O   O80       1.0  0.6168662573353799  0.9914376885360168  0.39143461735982055  1.0000
