data_image0
_chemical_formula_structural       Al16H96C128N16O80
_chemical_formula_sum              "Al16 H96 C128 N16 O80"
_cell_length_a       21.6116
_cell_length_b       21.61518
_cell_length_c       10.18042
_cell_angle_alpha    89.73663999999998
_cell_angle_beta     89.71647
_cell_angle_gamma    90.60553000000002

_space_group_name_H-M_alt    "P 1"
_space_group_IT_number       1

loop_
  _space_group_symop_operation_xyz
  'x, y, z'

loop_
  _atom_site_type_symbol
  _atom_site_label
  _atom_site_symmetry_multiplicity
  _atom_site_fract_x
  _atom_site_fract_y
  _atom_site_fract_z
  _atom_site_occupancy
  Al  Al1       1.0  0.7470861872493592  0.4221794593071917  0.7322676510341711  1.0000
  Al  Al2       1.0  0.7444799550232544  0.5706784686637797  0.22585381946052038  1.0000
  Al  Al3       1.0  0.8164321132779565  0.5022866307846556  0.9717649038383184  1.0000
  Al  Al4       1.0  0.6764088697319518  0.4856472347216358  0.48146050000641355  1.0000
  Al  Al5       1.0  0.25112775888520106  0.9298436212861438  0.288571413413001  1.0000
  Al  Al6       1.0  0.2561519316681829  0.08101922608839694  0.7925560013929441  1.0000
  Al  Al7       1.0  0.3210730230033216  0.9972119403119374  0.5437695552275792  1.0000
  Al  Al8       1.0  0.18712809259302715  0.008062602339669045  0.051659129089839606  1.0000
  Al  Al9       1.0  0.24656373818052815  0.5748263581653053  0.22065784529344534  1.0000
  Al  Al10      1.0  0.24530544611489397  0.4307445489954787  0.7205785357458236  1.0000
  Al  Al11      1.0  0.16969930744461273  0.5112118558454016  0.9544129517415625  1.0000
  Al  Al12      1.0  0.31656651879259506  0.4968769106891025  0.45928788205856486  1.0000
  Al  Al13      1.0  0.7514976960915292  0.06656582541656847  0.773399322644565  1.0000
  Al  Al14      1.0  0.7532369370733658  0.9255914847210301  0.27471683951250353  1.0000
  Al  Al15      1.0  0.6829957318435722  0.9876110189181729  0.5290607817504935  1.0000
  Al  Al16      1.0  0.8246224958160652  0.003544137442179185  0.02952197137920395  1.0000
  H   H1        1.0  0.6319974750636925  0.2708281227924897  0.07493430572605421  1.0000
  H   H2        1.0  0.9070209432714338  0.7235347923256449  0.5937487730333025  1.0000
  H   H3        1.0  0.9444263553254173  0.3306998237338515  0.38229310696811664  1.0000
  H   H4        1.0  0.5443481900992528  0.6483391248974653  0.8540777438355326  1.0000
  H   H5        1.0  0.8305178847803654  0.30362396644233236  0.4265889351189049  1.0000
  H   H6        1.0  0.6470852873460283  0.6935228783201112  0.9378066202969985  1.0000
  H   H7        1.0  0.5284084875485996  0.4075242089182991  0.1564806570884314  1.0000
  H   H8        1.0  0.9590318214278862  0.6057903179270859  0.6466716494290548  1.0000
  H   H9        1.0  0.1397211351718335  0.8255255219546769  0.5923387741450524  1.0000
  H   H10       1.0  0.4013328898636621  0.20335142803406778  0.0980221869718024  1.0000
  H   H11       1.0  0.4666370536253161  0.9048872198681706  0.845016382279376  1.0000
  H   H12       1.0  0.04483688208188986  0.1152555222299577  0.35303524865880004  1.0000
  H   H13       1.0  0.3764758787661692  0.7498902623202274  0.9215938093686309  1.0000
  H   H14       1.0  0.18087447164217205  0.24640376907014272  0.4604233299530063  1.0000
  H   H15       1.0  0.03978576586635844  0.887931706625202  0.7143478014386646  1.0000
  H   H16       1.0  0.4845062802003657  0.13811865397916487  0.19759731914889858  1.0000
  H   H17       1.0  0.34886584015955324  0.6770647748137171  0.9071334242968235  1.0000
  H   H18       1.0  0.1501931378691743  0.31918503383763397  0.43668189184329553  1.0000
  H   H19       1.0  0.03915224985616945  0.6073897264881402  0.6324376551276399  1.0000
  H   H20       1.0  0.4464862074319548  0.41457339209766325  0.1479156646881706  1.0000
  H   H21       1.0  0.12480327486712142  0.7420528874343943  0.5862080665040899  1.0000
  H   H22       1.0  0.40854140219542023  0.2825148435277135  0.1136132990023869  1.0000
  H   H23       1.0  0.4690068440129242  0.642910409837457  0.8292095767296231  1.0000
  H   H24       1.0  0.016496739665546937  0.34189539280262693  0.3399658097769198  1.0000
  H   H25       1.0  0.8491060078443462  0.22747245520118106  0.4314873646046918  1.0000
  H   H26       1.0  0.6282818758906886  0.7668756392342847  0.92106356656616  1.0000
  H   H27       1.0  0.5558937780794018  0.1525233731237813  0.16418708555148087  1.0000
  H   H28       1.0  0.9631785709627554  0.9127290790888715  0.7475982010107706  1.0000
  H   H29       1.0  0.645975640552349  0.1885087325667305  0.0649173928038901  1.0000
  H   H30       1.0  0.9038214947499796  0.8040101317664702  0.6125430124075694  1.0000
  H   H31       1.0  0.9704309884680338  0.13652414143931826  0.36274387348033393  1.0000
  H   H32       1.0  0.5417395141824798  0.8954542925721897  0.8532532617925787  1.0000
  H   H33       1.0  0.7179298409468688  0.24203049883210154  0.6131697858691563  1.0000
  H   H34       1.0  0.7755515801740823  0.7534025229739455  0.1147757424760877  1.0000
  H   H35       1.0  0.0015440541919861184  0.4817318495338093  0.8313300666123168  1.0000
  H   H36       1.0  0.4973015025839099  0.5137376533196089  0.328651473520157  1.0000
  H   H37       1.0  0.7618743144879117  0.2378024577273666  0.8962020741913862  1.0000
  H   H38       1.0  0.7293341966773014  0.7432119706192254  0.38667993673049406  1.0000
  H   H39       1.0  0.5045008434413454  0.47113862942145995  0.6060156184717718  1.0000
  H   H40       1.0  0.9963899766619347  0.5218913626509695  0.10585968574020611  1.0000
  H   H41       1.0  0.2446048756174187  0.7602221047249808  0.09773942296445061  1.0000
  H   H42       1.0  0.2888027978976853  0.24911111123926055  0.626464448548568  1.0000
  H   H43       1.0  0.5078864594941411  0.9522245347944238  0.41025770886107993  1.0000
  H   H44       1.0  0.9978434650814356  0.03256549999122012  0.9041487202850875  1.0000
  H   H45       1.0  0.2584294131263087  0.7458267919743785  0.41208587400674657  1.0000
  H   H46       1.0  0.23647862926368943  0.2581899568218782  0.9171332952895586  1.0000
  H   H47       1.0  0.0056376912025923875  0.977774551672493  0.1649231782409334  1.0000
  H   H48       1.0  0.49832577526631766  0.002278374861909195  0.6945697852790451  1.0000
  H   H49       1.0  0.6631563237747073  0.33370097317005115  0.2573880764054926  1.0000
  H   H50       1.0  0.8530865685525282  0.6616999814859932  0.7685697750088767  1.0000
  H   H51       1.0  0.883687639415797  0.40057064207437054  0.5299858739460742  1.0000
  H   H52       1.0  0.6026393303980271  0.5859484160732596  0.0087163275626168  1.0000
  H   H53       1.0  0.820288232993168  0.357450373145483  0.21768536011623407  1.0000
  H   H54       1.0  0.6713322201403885  0.63032743394466  0.7280736507671342  1.0000
  H   H55       1.0  0.5957479515862065  0.41152442327183614  0.9551407320296215  1.0000
  H   H56       1.0  0.8960916168957684  0.5717925660799431  0.4519101116592889  1.0000
  H   H57       1.0  0.17573285721646176  0.8776920975212755  0.7954321042383979  1.0000
  H   H58       1.0  0.36677821915976366  0.14076410153201344  0.32427220550616537  1.0000
  H   H59       1.0  0.39955716663639457  0.9054031000999018  0.07048992101935073  1.0000
  H   H60       1.0  0.10499030980834212  0.11799356197726239  0.5840492541363641  1.0000
  H   H61       1.0  0.34015257514482317  0.8177293003273196  0.7586018071681389  1.0000
  H   H62       1.0  0.18010175841123297  0.1718847018822249  0.28376522880973776  1.0000
  H   H63       1.0  0.10437099307883767  0.9329721410249487  0.5217541878550223  1.0000
  H   H64       1.0  0.4175126137613322  0.1098554215241253  0.010157578162195646  1.0000
  H   H65       1.0  0.32021908186233705  0.6220795303084206  0.7137821604594164  1.0000
  H   H66       1.0  0.1451378139387772  0.36957348527675915  0.2074889691256015  1.0000
  H   H67       1.0  0.09284943149163745  0.5923481593302113  0.4401802436747498  1.0000
  H   H68       1.0  0.3952831319638632  0.4303789474429051  0.9444755548779846  1.0000
  H   H69       1.0  0.1759635343170681  0.6833868603659105  0.7301750260665802  1.0000
  H   H70       1.0  0.33995549038930145  0.3359518166765071  0.26243083234036807  1.0000
  H   H71       1.0  0.4013645479556527  0.5937964209734058  0.9981831833707143  1.0000
  H   H72       1.0  0.08372269899660244  0.3993274805594408  0.48451961425483103  1.0000
  H   H73       1.0  0.8224049108915131  0.15837091318942847  0.24635875460627016  1.0000
  H   H74       1.0  0.6682425102640273  0.8301731975404526  0.7441448296963772  1.0000
  H   H75       1.0  0.6135117191586174  0.08065196397868929  0.9722190232722313  1.0000
  H   H76       1.0  0.8992429962751648  0.9240778472440171  0.5123659953138138  1.0000
  H   H77       1.0  0.6636851196064156  0.1322303332979586  0.2884734682413265  1.0000
  H   H78       1.0  0.865736343078951  0.8534234514622768  0.8098656469698065  1.0000
  H   H79       1.0  0.9061863560788698  0.0946510212470247  0.5559645129767629  1.0000
  H   H80       1.0  0.6020888266448226  0.9091623243492385  0.05032369385264273  1.0000
  H   H81       1.0  0.24602070928583572  0.5344096240022437  0.7695732655807135  1.0000
  H   H82       1.0  0.21706237426202765  0.46673126029455414  0.5056740670453485  1.0000
  H   H83       1.0  0.24947501585901885  0.4731915240627399  0.2604243885150065  1.0000
  H   H84       1.0  0.27112938379416857  0.5123887292664063  0.03128772312282619  1.0000
  H   H85       1.0  0.7327630803888658  0.47390759154872664  0.1446993037936629  1.0000
  H   H86       1.0  0.7746643399443911  0.5038969015857502  0.3916690698694961  1.0000
  H   H87       1.0  0.7571759608914957  0.5165539018462986  0.6484013851289558  1.0000
  H   H88       1.0  0.7163132312134446  0.4989325287432822  0.8897459559717324  1.0000
  H   H89       1.0  0.2558496926698659  0.9854017000457733  0.8539142310952681  1.0000
  H   H90       1.0  0.2915803417044999  0.0051218988138287255  0.13080552235548396  1.0000
  H   H91       1.0  0.2601604912623247  0.027566385291782118  0.36017223169319906  1.0000
  H   H92       1.0  0.22375652332587212  0.00034776041447059924  0.6153188754276427  1.0000
  H   H93       1.0  0.7869294779132497  0.9949869239756577  0.6228122105206504  1.0000
  H   H94       1.0  0.7242977688979269  0.011131805552024858  0.1154872501514326  1.0000
  H   H95       1.0  0.7581452215226588  0.9708868800675562  0.8680713613736326  1.0000
  H   H96       1.0  0.7583239761699921  0.017680822222724712  0.35773215725541474  1.0000
  C   C1        1.0  0.7015532341068459  0.35509654658053674  0.4965244163303303  1.0000
  C   C2        1.0  0.7904511789064183  0.6367766700482694  0.005239764136065871  1.0000
  C   C3        1.0  0.8767845466419498  0.45337708595730875  0.7493111266041339  1.0000
  C   C4        1.0  0.6123505990288715  0.54167657988395  0.2462878845801865  1.0000
  C   C5        1.0  0.7806008226316686  0.3670777519773144  0.9709182699393177  1.0000
  C   C6        1.0  0.7104527468728474  0.6175512798975962  0.480830972174539  1.0000
  C   C7        1.0  0.6118866474462581  0.4462260935761802  0.7062940138770575  1.0000
  C   C8        1.0  0.878672397101439  0.5356156773464694  0.20661580525772524  1.0000
  C   C9        1.0  0.21120465484436288  0.8772607451030533  0.04322635155039617  1.0000
  C   C10       1.0  0.31031003036588956  0.13292512819879568  0.5627047606013076  1.0000
  C   C11       1.0  0.38900987776558604  0.9461307223242222  0.3170498261875469  1.0000
  C   C12       1.0  0.12072979445982576  0.061963047814139804  0.8160641294083303  1.0000
  C   C13       1.0  0.292403748041361  0.8568745389828442  0.5200302339752042  1.0000
  C   C14       1.0  0.21582534229881514  0.14627599308358763  0.02519236436811001  1.0000
  C   C15       1.0  0.11982718621201284  0.9672332614046204  0.28248008717688855  1.0000
  C   C16       1.0  0.3894181733679755  0.048300462955959945  0.7751329011035833  1.0000
  C   C17       1.0  0.27928812267000463  0.6246984824084585  0.4700361254779011  1.0000
  C   C18       1.0  0.19771838148417725  0.3744342021882265  0.9581706297176026  1.0000
  C   C19       1.0  0.11174329932556114  0.5467322635756469  0.19383250163812804  1.0000
  C   C20       1.0  0.3838862108095254  0.45871445138837924  0.6912974077226187  1.0000
  C   C21       1.0  0.20605046155142262  0.6419186648278886  0.9925734613333674  1.0000
  C   C22       1.0  0.3057922411654654  0.363370925560192  0.500414767901469  1.0000
  C   C23       1.0  0.38319155923735676  0.5479635164268375  0.22768697174525632  1.0000
  C   C24       1.0  0.10748371079917783  0.4573125105521879  0.7273498230803246  1.0000
  C   C25       1.0  0.7900636387737152  0.13731462475279244  0.001492229042808102  1.0000
  C   C26       1.0  0.7095215941194138  0.8530522589969873  0.5006442214844707  1.0000
  C   C27       1.0  0.6193850553184175  0.033317987356733476  0.7625939397939668  1.0000
  C   C28       1.0  0.8894964879092179  0.9575838994611066  0.25320718002562975  1.0000
  C   C29       1.0  0.7001779576950901  0.12263418435919805  0.5332673397456892  1.0000
  C   C30       1.0  0.7968488140628694  0.869449373202978  0.027155090107920554  1.0000
  C   C31       1.0  0.8876834104317773  0.04638597774861014  0.7932566330383944  1.0000
  C   C32       1.0  0.6194063722186962  0.9426330662990405  0.2945582562860573  1.0000
  C   C33       1.0  0.7066294377347184  0.24010256860863974  0.5088301677402618  1.0000
  C   C34       1.0  0.7916845513459715  0.7524784858460682  0.013341982053696202  1.0000
  C   C35       1.0  0.9937755300604039  0.4641408385424363  0.7303865123931874  1.0000
  C   C36       1.0  0.4974884302047447  0.5386415054697594  0.23025266177434103  1.0000
  C   C37       1.0  0.7812883359624083  0.24961200789541027  0.9872499873473367  1.0000
  C   C38       1.0  0.711183187310753  0.7342826453484421  0.4882146422699446  1.0000
  C   C39       1.0  0.5001331477791312  0.45570513854179223  0.7078177926192346  1.0000
  C   C40       1.0  0.9957078773677984  0.5377833406849434  0.2053965445472897  1.0000
  C   C41       1.0  0.21428355521528544  0.7597873273373276  0.012220015249777975  1.0000
  C   C42       1.0  0.30900272285643327  0.24628610506658402  0.5315117508818799  1.0000
  C   C43       1.0  0.5045145445114958  0.9434129782784442  0.30438842113458237  1.0000
  C   C44       1.0  0.0008746805441435246  0.050249164728573166  0.805358287967537  1.0000
  C   C45       1.0  0.27995510311838423  0.7407520008561543  0.5040637554974031  1.0000
  C   C46       1.0  0.21194390444514372  0.2624964416634231  0.008078744692050277  1.0000
  C   C47       1.0  0.003641302166659921  0.9629427744655876  0.2695939209898751  1.0000
  C   C48       1.0  0.5028398552669516  0.03226928119582274  0.7837590338445859  1.0000
  C   C49       1.0  0.6949639153414914  0.2931591819545796  0.43498857591257517  1.0000
  C   C50       1.0  0.8081492186436883  0.6979970790827952  0.9453287466143747  1.0000
  C   C51       1.0  0.9354122680033948  0.4475756649380343  0.6757889670749778  1.0000
  C   C52       1.0  0.5532490125987266  0.5506285585684945  0.16787886509921174  1.0000
  C   C53       1.0  0.7935484915745492  0.30764288096097564  0.04608900080973781  1.0000
  C   C54       1.0  0.7009701329020478  0.6783893833327026  0.5536302990871785  1.0000
  C   C55       1.0  0.5523913544553833  0.44208845736664837  0.7752087278174242  1.0000
  C   C56       1.0  0.9380513407549129  0.543943006347241  0.2767766851161512  1.0000
  C   C57       1.0  0.204937371051809  0.8209523982014043  0.9564911475232445  1.0000
  C   C58       1.0  0.32768608359692386  0.18841251158987332  0.48663816016505707  1.0000
  C   C59       1.0  0.4471166285048417  0.9365587422539813  0.23655355590440325  1.0000
  C   C60       1.0  0.05761418078649329  0.06860409736597117  0.7446852255556572  1.0000
  C   C61       1.0  0.3020245773563539  0.793016198445912  0.570272399842555  1.0000
  C   C62       1.0  0.20026432940635602  0.20835667379689798  0.0822005270755841  1.0000
  C   C63       1.0  0.05718093227407558  0.9574198011133381  0.3491576561873993  1.0000
  C   C64       1.0  0.4529351963709033  0.05665823140937053  0.8427174103808073  1.0000
  C   C65       1.0  0.28754956078328897  0.6788292367259962  0.5524114037924873  1.0000
  C   C66       1.0  0.1919101027705112  0.32104060809328605  0.04599791798857297  1.0000
  C   C67       1.0  0.049949221337921415  0.555888822217918  0.2680530973713677  1.0000
  C   C68       1.0  0.44196988766103046  0.4494009286220484  0.7650360308944474  1.0000
  C   C69       1.0  0.19659026534838062  0.7078176620550816  0.9386997700485664  1.0000
  C   C70       1.0  0.3135600121210258  0.3007557538658708  0.45341633571123435  1.0000
  C   C71       1.0  0.44367014640079766  0.5525634881610063  0.16327608641956504  1.0000
  C   C72       1.0  0.04749544862009253  0.44559482033958875  0.6622512597043977  1.0000
  C   C73       1.0  0.7908709848287891  0.19859340540738107  0.067361439664443  1.0000
  C   C74       1.0  0.7023940865232025  0.7901967215825969  0.5614557764634355  1.0000
  C   C75       1.0  0.5605222837153753  0.04446770044820116  0.8344832842555918  1.0000
  C   C76       1.0  0.9465398555652149  0.9518619429995322  0.3311982179216609  1.0000
  C   C77       1.0  0.6960800772782604  0.18229558289505562  0.44866224053293907  1.0000
  C   C78       1.0  0.8062177354963089  0.8101470723671134  0.9571192912938725  1.0000
  C   C79       1.0  0.9450408486778413  0.06046617313595822  0.7291899978305334  1.0000
  C   C80       1.0  0.5585311448000851  0.9351403087598535  0.23012988797806277  1.0000
  C   C81       1.0  0.6729192693477362  0.2912025261945741  0.30550829269177326  1.0000
  C   C82       1.0  0.8405192213502579  0.7019845214242078  0.8232144235952854  1.0000
  C   C83       1.0  0.9302258430578006  0.41777609971009017  0.5530058232261988  1.0000
  C   C84       1.0  0.5560170082040369  0.5807486899414956  0.05133252420938807  1.0000
  C   C85       1.0  0.8126558652774141  0.31107029940558667  0.17707586465752598  1.0000
  C   C86       1.0  0.6738649684868777  0.6754653411209042  0.6820130266510012  1.0000
  C   C87       1.0  0.5504358027819543  0.4273198656768198  0.9064782829823355  1.0000
  C   C88       1.0  0.936866056511175  0.5669791553746013  0.4020824657503149  1.0000
  C   C89       1.0  0.1775696324424603  0.8296395540411416  0.8275157274097922  1.0000
  C   C90       1.0  0.3550991701514161  0.1853103790448057  0.36232898221241056  1.0000
  C   C91       1.0  0.44450919227390473  0.9122719620312972  0.10686905439756399  1.0000
  C   C92       1.0  0.06164404417503652  0.09813583371823234  0.6221540781014812  1.0000
  C   C93       1.0  0.32870559844195807  0.7820298697187503  0.6971981421436744  1.0000
  C   C94       1.0  0.18213606302517543  0.21278998772954108  0.2184450820415168  1.0000
  C   C95       1.0  0.0569658528026915  0.9342596481367693  0.47974873058060663  1.0000
  C   C96       1.0  0.45682289821674477  0.08875342250842573  0.9603516096581812  1.0000
  C   C97       1.0  0.3200920735203121  0.6690463505514143  0.6696449286354514  1.0000
  C   C98       1.0  0.16233790954858016  0.3247211746546753  0.17419777952988935  1.0000
  C   C99       1.0  0.049370103560657894  0.5787843217033424  0.39289247195836696  1.0000
  C   C100      1.0  0.43923935069956244  0.42957323475905984  0.8987150333533496  1.0000
  C   C101      1.0  0.17276082504159532  0.7180145556628745  0.8134148603507437  1.0000
  C   C102      1.0  0.34193287427347085  0.29530369433582737  0.3275486713968061  1.0000
  C   C103      1.0  0.444307837017173  0.5787085222441904  0.03819198937233502  1.0000
  C   C104      1.0  0.04307282138101036  0.4138849305714953  0.5411607883795851  1.0000
  C   C105      1.0  0.8112513950140214  0.1996455997460229  0.1930574744905019  1.0000
  C   C106      1.0  0.6759417479095923  0.7887308337870143  0.6862121997118806  1.0000
  C   C107      1.0  0.5651285567797009  0.06946132138403822  0.955276103828374  1.0000
  C   C108      1.0  0.9448662975374882  0.928091210232874  0.4628001913962304  1.0000
  C   C109      1.0  0.6739335711405392  0.17707461633574523  0.3233019333865451  1.0000
  C   C110      1.0  0.8397745567033875  0.8090070184956283  0.8389267367592271  1.0000
  C   C111      1.0  0.9486340667173953  0.08960607539960298  0.6083331106618535  1.0000
  C   C112      1.0  0.5547763403278654  0.9150837598017681  0.099403242379124  1.0000
  C   C113      1.0  0.6620997181346936  0.23163833215024085  0.24712220927302678  1.0000
  C   C114      1.0  0.8582330223827006  0.757741743082544  0.7650296675525349  1.0000
  C   C115      1.0  0.9844097927246724  0.39629917763592204  0.4920491608693372  1.0000
  C   C116      1.0  0.5008370948847383  0.5914272361451736  0.9780050733162143  1.0000
  C   C117      1.0  0.8270583529037646  0.25683333517434476  0.2526775128511861  1.0000
  C   C118      1.0  0.6630015675758374  0.7303929462472969  0.7477788519459021  1.0000
  C   C119      1.0  0.4934949976307477  0.4216340881518061  0.9743419414014839  1.0000
  C   C120      1.0  0.9941715914132061  0.5842914047835592  0.4640505979050641  1.0000
  C   C121      1.0  0.16234016904725657  0.7784396753595794  0.7554555127779976  1.0000
  C   C122      1.0  0.36125682843224377  0.23924588747826966  0.2800229590220704  1.0000
  C   C123      1.0  0.499253772319989  0.9068857883648163  0.03780746199170108  1.0000
  C   C124      1.0  0.004963947619582021  0.10537839380700442  0.5478156377553095  1.0000
  C   C125      1.0  0.3415713986816515  0.721868694465269  0.7423892978059904  1.0000
  C   C126      1.0  0.16615577265964107  0.27385040434022034  0.2671717126315454  1.0000
  C   C127      1.0  0.9975133808574262  0.920140519454218  0.5479099474332485  1.0000
  C   C128      1.0  0.5138077766392343  0.09207092583682532  0.02745594398370388  1.0000
  N   N1        1.0  0.6336857077455776  0.22872809532867933  0.1186418420329503  1.0000
  N   N2        1.0  0.8918006353054865  0.7604396425332526  0.6478204595556724  1.0000
  N   N3        1.0  0.9775510236814865  0.3647563149515971  0.3697765676471536  1.0000
  N   N4        1.0  0.5054484337925682  0.6202811731324204  0.8582858980688585  1.0000
  N   N5        1.0  0.8505585819584776  0.2666347575077953  0.3817206036383588  1.0000
  N   N6        1.0  0.6315239339828627  0.7247930228859952  0.8721979060907342  1.0000
  N   N7        1.0  0.4873672436565538  0.40564061861463696  0.10394688559312053  1.0000
  N   N8        1.0  0.994748862941564  0.6076371782762694  0.5861267683770885  1.0000
  N   N9        1.0  0.14096350368227087  0.7821513062711737  0.6294824869239664  1.0000
  N   N10       1.0  0.3927089915944584  0.2400277356493015  0.15405911767666577  1.0000
  N   N11       1.0  0.5023961616822159  0.8906709895723026  0.9008264791963723  1.0000
  N   N12       1.0  0.009788672085032032  0.12739971877932996  0.41234380251339187  1.0000
  N   N13       1.0  0.37130860453018427  0.711489962974398  0.8603619968147238  1.0000
  N   N14       1.0  0.15336781973785377  0.27442554477713144  0.40049708105701215  1.0000
  N   N15       1.0  0.996142940721838  0.8994499697463537  0.6759183006732462  1.0000
  N   N16       1.0  0.5207201478642876  0.12193630199373337  0.14913983198904357  1.0000
  O   O1        1.0  0.8371624757499873  0.411553639435507  0.7243907453211074  1.0000
  O   O2        1.0  0.6551720751806874  0.5823751373041856  0.2177653891111342  1.0000
  O   O3        1.0  0.8128958606056518  0.5900966920648814  0.952631189308407  1.0000
  O   O4        1.0  0.6759422619332365  0.40109529362853835  0.44324985674971284  1.0000
  O   O5        1.0  0.6594264198406776  0.4241118085736019  0.7571405813146613  1.0000
  O   O6        1.0  0.8328281309523579  0.5639384512726486  0.25309712112557203  1.0000
  O   O7        1.0  0.6781533757377163  0.5711749758366692  0.5216974786713301  1.0000
  O   O8        1.0  0.8127822416228435  0.41368868605495024  0.005344680693593075  1.0000
  O   O9        1.0  0.3414090442380796  0.918041403310846  0.27055333672560866  1.0000
  O   O10       1.0  0.17068445798119267  0.07664228198175271  0.7467546829686001  1.0000
  O   O11       1.0  0.3319499876651664  0.08273135209617635  0.5118142804071644  1.0000
  O   O12       1.0  0.17627341626944426  0.9235416492873543  0.013653545950608637  1.0000
  O   O13       1.0  0.16208856500364605  0.9335631387941186  0.32267826890568585  1.0000
  O   O14       1.0  0.34479883200371875  0.07882824011883333  0.8288522433529271  1.0000
  O   O15       1.0  0.19877263231909711  0.09692971361457166  0.08542148611820745  1.0000
  O   O16       1.0  0.31784854282300207  0.9035314597002582  0.5785047538978706  1.0000
  O   O17       1.0  0.15970097132289915  0.5720339755078938  0.2511095256800529  1.0000
  O   O18       1.0  0.33570570882056905  0.4316837108186885  0.7450799501966175  1.0000
  O   O19       1.0  0.16579023196198056  0.4213698849756433  0.9886527547156427  1.0000
  O   O20       1.0  0.3124044593196751  0.5784140124322195  0.5012977871891368  1.0000
  O   O21       1.0  0.33892025587943525  0.5813529236429051  0.18892394954684408  1.0000
  O   O22       1.0  0.15507427070573443  0.426171047754379  0.6865967879951387  1.0000
  O   O23       1.0  0.3256910385726202  0.41046460678445473  0.4379178300497163  1.0000
  O   O24       1.0  0.18266098650703727  0.5969387279418802  0.9206074373456533  1.0000
  O   O25       1.0  0.665490298182508  0.06530434113597665  0.8036332515926915  1.0000
  O   O26       1.0  0.8414273196130707  0.9252463475790809  0.2822583780501448  1.0000
  O   O27       1.0  0.6934751322431236  0.8992233970687225  0.5658098131096643  1.0000
  O   O28       1.0  0.8215940481637505  0.09230408412656448  0.04588414893995029  1.0000
  O   O29       1.0  0.8370992619298615  0.06251928532974638  0.7329624851427324  1.0000
  O   O30       1.0  0.6658327547670763  0.9291700635195126  0.2299595639669089  1.0000
  O   O31       1.0  0.8269643728540522  0.9167322570635112  0.9793005063347158  1.0000
  O   O32       1.0  0.6749486974147533  0.07309381600520416  0.4905053048895324  1.0000
  O   O33       1.0  0.7542318817969887  0.49136410047476087  0.8453668493763611  1.0000
  O   O34       1.0  0.7361516941546283  0.4943314939442315  0.3412105847576299  1.0000
  O   O35       1.0  0.7434409502824161  0.5095437330769244  0.08667132682201778  1.0000
  O   O36       1.0  0.7478872401955616  0.47945043086748274  0.5991276682317055  1.0000
  O   O37       1.0  0.2578075812418207  0.9917056023783835  0.4210165267440915  1.0000
  O   O38       1.0  0.24747033689270773  0.01952697802192232  0.9172636789669417  1.0000
  O   O39       1.0  0.2607739055370559  0.005969780000803297  0.6727401109895108  1.0000
  O   O40       1.0  0.2503546311817797  0.9985106358998984  0.17764382779489113  1.0000
  O   O41       1.0  0.23200112512791618  0.5186842464583848  0.07137403360735019  1.0000
  O   O42       1.0  0.25023114720099743  0.4796623767419599  0.565040823180222  1.0000
  O   O43       1.0  0.2353125537839717  0.501201319418757  0.8233000507200959  1.0000
  O   O44       1.0  0.2535384379232398  0.5043280763739334  0.32518935776771085  1.0000
  O   O45       1.0  0.744099156578018  0.001010212612852503  0.6586582062571498  1.0000
  O   O46       1.0  0.7604650675206225  0.0021264069846949063  0.17485024112891945  1.0000
  O   O47       1.0  0.7476062458269132  0.98174987240408  0.40938538584233564  1.0000
  O   O48       1.0  0.756127291591919  0.005719170846472193  0.9212827600216104  1.0000
  O   O49       1.0  0.7322420468732898  0.3585238432073982  0.6013598220932905  1.0000
  O   O50       1.0  0.7539907001163807  0.6369402173974551  0.10890566663243782  1.0000
  O   O51       1.0  0.8738432562032582  0.497253577359404  0.8320337708933805  1.0000
  O   O52       1.0  0.6147976697407869  0.5022255459944542  0.3384696346579423  1.0000
  O   O53       1.0  0.7420417395243338  0.3666339839519658  0.8752193785882886  1.0000
  O   O54       1.0  0.7448145125147554  0.6202865857749729  0.3804468714245147  1.0000
  O   O55       1.0  0.6114285296701994  0.47471109972809633  0.598632935588256  1.0000
  O   O56       1.0  0.8789578625341948  0.4994930959114406  0.10517617166131471  1.0000
  O   O57       1.0  0.24621419721785862  0.8715789799886002  0.14893507540239367  1.0000
  O   O58       1.0  0.2726702208019575  0.139853527579586  0.6551222460730455  1.0000
  O   O59       1.0  0.38780262911041635  0.9814515792610736  0.4143947671392329  1.0000
  O   O60       1.0  0.12026570820022271  0.03588312873332608  0.9290122902251817  1.0000
  O   O61       1.0  0.25680423470161085  0.8612500817214231  0.4221489226312278  1.0000
  O   O62       1.0  0.2426465373531365  0.14634046963009892  0.9157225940565311  1.0000
  O   O63       1.0  0.11748020719365358  0.0037421314816104  0.18688202699607342  1.0000
  O   O64       1.0  0.3851528731801734  0.009068307221862797  0.6810911259493807  1.0000
  O   O65       1.0  0.24659029059155077  0.6285821460005135  0.36328232831404744  1.0000
  O   O66       1.0  0.2332796627377737  0.3718197301793775  0.8558757445008884  1.0000
  O   O67       1.0  0.11155949741404048  0.5179516319044047  0.08247207321250642  1.0000
  O   O68       1.0  0.3799071965618419  0.4926342014816327  0.5874357160598378  1.0000
  O   O69       1.0  0.2326659168279014  0.6405250836888928  0.1020472590765367  1.0000
  O   O70       1.0  0.2686805254663311  0.3643708026508534  0.6081798678721443  1.0000
  O   O71       1.0  0.3826990825910111  0.5119572668707965  0.3258771684284988  1.0000
  O   O72       1.0  0.11028776842236103  0.49652548601908647  0.8215249572997853  1.0000
  O   O73       1.0  0.761541282755543  0.13187819004626025  0.8922545910473886  1.0000
  O   O74       1.0  0.7325125813793357  0.8553896934150601  0.38087615732232194  1.0000
  O   O75       1.0  0.6225816381646974  0.9950257961421956  0.6633754926753107  1.0000
  O   O76       1.0  0.8907520474821614  0.9964269905417455  0.15669912167699404  1.0000
  O   O77       1.0  0.7338393787160994  0.12636470060621097  0.6296390312252792  1.0000
  O   O78       1.0  0.7627969010342572  0.8697061524665749  0.1262911850912591  1.0000
  O   O79       1.0  0.8882827403305801  0.020195772938834317  0.904259540467946  1.0000
  O   O80       1.0  0.6183565382525351  0.9617341692280607  0.4152846134145963  1.0000
