data_image0
_chemical_formula_structural       Al16H96C128N16O80
_chemical_formula_sum              "Al16 H96 C128 N16 O80"
_cell_length_a       21.6116
_cell_length_b       21.61518
_cell_length_c       10.18042
_cell_angle_alpha    89.73663999999998
_cell_angle_beta     89.71647
_cell_angle_gamma    90.60553000000002

_space_group_name_H-M_alt    "P 1"
_space_group_IT_number       1

loop_
  _space_group_symop_operation_xyz
  'x, y, z'

loop_
  _atom_site_type_symbol
  _atom_site_label
  _atom_site_symmetry_multiplicity
  _atom_site_fract_x
  _atom_site_fract_y
  _atom_site_fract_z
  _atom_site_occupancy
  Al  Al1       1.0  0.7464606893244013  0.43169439553323274  0.7238788823411938  1.0000
  Al  Al2       1.0  0.7476251733332576  0.5688824688560465  0.22753927305893623  1.0000
  Al  Al3       1.0  0.8172398014267273  0.5035764729056936  0.9741479449332827  1.0000
  Al  Al4       1.0  0.6804683803745067  0.49510924887695124  0.46102855174408325  1.0000
  Al  Al5       1.0  0.24557684342093233  0.9161492441103931  0.29569380339283785  1.0000
  Al  Al6       1.0  0.26123762835066405  0.06733447982475756  0.7810036056194815  1.0000
  Al  Al7       1.0  0.32101350518418703  0.9898289100474157  0.5327428669756966  1.0000
  Al  Al8       1.0  0.1887608827675584  0.9991522240114128  0.04230074838310238  1.0000
  Al  Al9       1.0  0.24934536507657426  0.5648195437034498  0.23077774160597336  1.0000
  Al  Al10      1.0  0.2481652926924016  0.4251540232646479  0.7370912144958967  1.0000
  Al  Al11      1.0  0.17554712591065713  0.49682530789074636  0.9844381359634643  1.0000
  Al  Al12      1.0  0.3199439893649748  0.4939144899678107  0.48460759300677025  1.0000
  Al  Al13      1.0  0.7500935897023314  0.07471465780961485  0.7581706126606781  1.0000
  Al  Al14      1.0  0.7543688854992988  0.9307212438030099  0.26557102959200196  1.0000
  Al  Al15      1.0  0.6861021050253566  0.9917840841863955  0.5213925834362396  1.0000
  Al  Al16      1.0  0.8245797921122724  0.010778445435075446  0.01858164304822135  1.0000
  H   H1        1.0  0.6380016160426435  0.2755765633479408  0.06358706928240043  1.0000
  H   H2        1.0  0.9384885435037279  0.7172749491093876  0.6951602411306917  1.0000
  H   H3        1.0  0.9594405718526984  0.33062584242519666  0.36983821092569397  1.0000
  H   H4        1.0  0.5370916698806762  0.5987690022647688  0.803412723191014  1.0000
  H   H5        1.0  0.8382237944399659  0.32089255620845675  0.42216564138382934  1.0000
  H   H6        1.0  0.5466933014538035  0.7090921409793175  0.7947536234666941  1.0000
  H   H7        1.0  0.5359741998777914  0.41599957081329497  0.17529099538375503  1.0000
  H   H8        1.0  0.9578517352939301  0.5797502751651383  0.665259084120363  1.0000
  H   H9        1.0  0.15488313951854044  0.8065319847357041  0.6052517031061333  1.0000
  H   H10       1.0  0.348288031651216  0.1992161173957611  0.08723860627831295  1.0000
  H   H11       1.0  0.4619044177336399  0.9065496311919587  0.8445476805962052  1.0000
  H   H12       1.0  0.05618877769675267  0.10834242879892601  0.3629121140323652  1.0000
  H   H13       1.0  0.3559189029362114  0.7623073311253971  0.9648141158424401  1.0000
  H   H14       1.0  0.11776130628212124  0.21743408265769734  0.43472430862152694  1.0000
  H   H15       1.0  0.019703122568284596  0.9308322914760998  0.7272293380439501  1.0000
  H   H16       1.0  0.4713261954128065  0.1690816299533204  0.13237702517970532  1.0000
  H   H17       1.0  0.348715363098046  0.6881608250559622  0.9570857172489154  1.0000
  H   H18       1.0  0.12304437659326552  0.2958227928141504  0.4221571071580595  1.0000
  H   H19       1.0  0.024711092896533605  0.6016113232109422  0.655221733456329  1.0000
  H   H20       1.0  0.46624887419362676  0.3988269777109835  0.17489254291282266  1.0000
  H   H21       1.0  0.12758213001383809  0.7327153492444105  0.5805174372952959  1.0000
  H   H22       1.0  0.3689628016436331  0.27476288973877966  0.08643575056069847  1.0000
  H   H23       1.0  0.45702384522323186  0.6116915652494517  0.819290964571874  1.0000
  H   H24       1.0  0.03376982852100542  0.34808500946512355  0.36100998068519147  1.0000
  H   H25       1.0  0.8489463469771105  0.24758307085016212  0.43261856503225604  1.0000
  H   H26       1.0  0.564121851308544  0.7877593265332522  0.7996059152855632  1.0000
  H   H27       1.0  0.5507770499208875  0.16542446797263696  0.12903363025213713  1.0000
  H   H28       1.0  0.9418792024467995  0.9245301162214441  0.7102997189473446  1.0000
  H   H29       1.0  0.6703737148626114  0.2023680341520711  0.04584525573839297  1.0000
  H   H30       1.0  0.9540839783888359  0.7905437275223407  0.6984622320969112  1.0000
  H   H31       1.0  0.9832541654704038  0.11853027443404544  0.34736527231566117  1.0000
  H   H32       1.0  0.5376788881334578  0.9012316707003548  0.8499433760781419  1.0000
  H   H33       1.0  0.7243984111502118  0.2516546706701326  0.6065476746007588  1.0000
  H   H34       1.0  0.7705279295722428  0.7534328251447175  0.11571046612697135  1.0000
  H   H35       1.0  0.9962172001576918  0.47177258905694813  0.8446972083258475  1.0000
  H   H36       1.0  0.49966067930401176  0.5187224648482809  0.34129798100543907  1.0000
  H   H37       1.0  0.7628082400076013  0.24894544526215512  0.8980784987728085  1.0000
  H   H38       1.0  0.7574428333199392  0.7491843769939898  0.41660630840947893  1.0000
  H   H39       1.0  0.510019390574788  0.48871494767205675  0.6231930562394307  1.0000
  H   H40       1.0  0.0014404256331967463  0.5080063247282601  0.1309049773228546  1.0000
  H   H41       1.0  0.21223048088175997  0.7405021582235956  0.12814284195070172  1.0000
  H   H42       1.0  0.2909650136369406  0.24528337084099175  0.6268478728058663  1.0000
  H   H43       1.0  0.4941499115793577  0.9711880930018525  0.3987066362462397  1.0000
  H   H44       1.0  0.0035325731297526364  0.04253900804219392  0.8927504130619681  1.0000
  H   H45       1.0  0.26504453505602055  0.7471073931133448  0.4250466252799106  1.0000
  H   H46       1.0  0.23819946902021957  0.24344067811452516  0.9144696099914795  1.0000
  H   H47       1.0  0.011024132739734682  0.985002819839934  0.17891450210762777  1.0000
  H   H48       1.0  0.5012312888635456  0.009701461465574601  0.6681760771840628  1.0000
  H   H49       1.0  0.666508549727235  0.33998177243247973  0.24475559616974923  1.0000
  H   H50       1.0  0.857563961926706  0.6583163121070175  0.7939397099936133  1.0000
  H   H51       1.0  0.8925200170249139  0.40898481284918453  0.5277597857893841  1.0000
  H   H52       1.0  0.5977910834779747  0.5900551543201059  0.9979077925100739  1.0000
  H   H53       1.0  0.8241127492717395  0.36751322328423636  0.19929332363578048  1.0000
  H   H54       1.0  0.6093293959367769  0.6486282222898173  0.6019499125291929  1.0000
  H   H55       1.0  0.5973479083015866  0.4247236782854623  0.9798115618637105  1.0000
  H   H56       1.0  0.8913549481063737  0.5827660379726198  0.4615687648954911  1.0000
  H   H57       1.0  0.15307356527809196  0.8557004591875813  0.8007181563333411  1.0000
  H   H58       1.0  0.3443181144746268  0.1414043573525071  0.2816572269118751  1.0000
  H   H59       1.0  0.3922834002259752  0.9181409210449677  0.06154477443978277  1.0000
  H   H60       1.0  0.11041145380680302  0.08416992197510188  0.5558779998170025  1.0000
  H   H61       1.0  0.3532414422019534  0.825961973291551  0.7672140383940523  1.0000
  H   H62       1.0  0.16214179072221557  0.14771558238385885  0.24933368571144723  1.0000
  H   H63       1.0  0.08765805904903676  0.9137761487618452  0.5281406531187729  1.0000
  H   H64       1.0  0.40909860430296546  0.10730505855660924  0.9843427632609942  1.0000
  H   H65       1.0  0.3217488164285083  0.6302504911025698  0.7538385284635174  1.0000
  H   H66       1.0  0.1613602969904111  0.3522487066117498  0.22895767454470423  1.0000
  H   H67       1.0  0.08883835022480276  0.6048583039629335  0.4381181584262177  1.0000
  H   H68       1.0  0.39841944166452564  0.42437959824838856  0.9565275446995162  1.0000
  H   H69       1.0  0.1629717082019023  0.652571864439623  0.7634905462605995  1.0000
  H   H70       1.0  0.3550129390184092  0.3419387192802138  0.284727004031003  1.0000
  H   H71       1.0  0.398983743544387  0.597625810643723  0.013637403001545702  1.0000
  H   H72       1.0  0.09345359937658654  0.38746666814855013  0.5421772335289372  1.0000
  H   H73       1.0  0.830689878316331  0.16857908746949601  0.2513150622132108  1.0000
  H   H74       1.0  0.6372516496025789  0.8388627639581516  0.6943452569501882  1.0000
  H   H75       1.0  0.6034909965430837  0.103861333983929  0.9620539656993711  1.0000
  H   H76       1.0  0.8888205198273441  0.9364671997574252  0.49921978769202074  1.0000
  H   H77       1.0  0.6863833642968307  0.14195472097947642  0.25639575950056775  1.0000
  H   H78       1.0  0.8637773121671823  0.861874021756303  0.8083144443654006  1.0000
  H   H79       1.0  0.9156824268748834  0.1279545662392728  0.5629477689473615  1.0000
  H   H80       1.0  0.5958544156046655  0.9135386978869529  0.04734415870554769  1.0000
  H   H81       1.0  0.27779201917355106  0.5113986795816736  0.8744003247372781  1.0000
  H   H82       1.0  0.24519839966971285  0.5216452488491622  0.62890588445469  1.0000
  H   H83       1.0  0.22089592390521856  0.49033794893133215  0.41441856533072985  1.0000
  H   H84       1.0  0.24579035442936872  0.46470971643308906  0.14886128794415807  1.0000
  H   H85       1.0  0.724470081054273  0.47809306308188504  0.1274966346582412  1.0000
  H   H86       1.0  0.7798671681027803  0.4845136196125357  0.37003275257061047  1.0000
  H   H87       1.0  0.7522585370806426  0.5268357026154288  0.6242730778344865  1.0000
  H   H88       1.0  0.7255828700414821  0.5120101342070387  0.873999859532851  1.0000
  H   H89       1.0  0.27115114222821407  0.9696340524356155  0.9000783071590501  1.0000
  H   H90       1.0  0.2832260792743465  0.001886375217398376  0.16080137901700556  1.0000
  H   H91       1.0  0.2566357809480619  0.01670013263606665  0.3667290789238265  1.0000
  H   H92       1.0  0.22465509171303  0.98520145217773  0.6496305935954193  1.0000
  H   H93       1.0  0.7934264559463857  0.01705202203809053  0.5971212705744621  1.0000
  H   H94       1.0  0.7202821997668556  0.006662430306561706  0.1118542976270301  1.0000
  H   H95       1.0  0.7535337041491859  0.973328908517714  0.853118287825483  1.0000
  H   H96       1.0  0.7576378489504443  0.03207086718639052  0.3525750517323873  1.0000
  C   C1        1.0  0.7032875773656722  0.3607830085556521  0.49599060384824983  1.0000
  C   C2        1.0  0.7941123729336484  0.6379974504568285  0.005998605920201067  1.0000
  C   C3        1.0  0.8808727470891474  0.45426421366687475  0.7519459862973309  1.0000
  C   C4        1.0  0.6159718189117234  0.5459999504898726  0.24943382927138977  1.0000
  C   C5        1.0  0.7877955294163184  0.36982155558290486  0.9610073285652975  1.0000
  C   C6        1.0  0.7079151189556979  0.630355078988448  0.4532653915044328  1.0000
  C   C7        1.0  0.6172771938629137  0.46051711708592935  0.7105253454880351  1.0000
  C   C8        1.0  0.8794210729202778  0.5386741036901346  0.19866671225375762  1.0000
  C   C9        1.0  0.2004666606179748  0.8615865152972285  0.0497785024028692  1.0000
  C   C10       1.0  0.3039155675818821  0.12732961218783323  0.5408320232450694  1.0000
  C   C11       1.0  0.3819201498736589  0.9454625424100215  0.3070571014301337  1.0000
  C   C12       1.0  0.12200288397593931  0.049215400240805104  0.8081996134500588  1.0000
  C   C13       1.0  0.28944526024634415  0.8538240539590173  0.5224820105575093  1.0000
  C   C14       1.0  0.21022894974922993  0.13152974412628166  0.014595836261380057  1.0000
  C   C15       1.0  0.11600354139772755  0.9530097400937344  0.27220363281084226  1.0000
  C   C16       1.0  0.3920209346920115  0.0415222308443147  0.7553407771457933  1.0000
  C   C17       1.0  0.2880931630895551  0.6266145402496613  0.48175126190352335  1.0000
  C   C18       1.0  0.2045021949383616  0.36303335924748636  0.9774469015736041  1.0000
  C   C19       1.0  0.11146260517777583  0.5411802613134243  0.22717675902999446  1.0000
  C   C20       1.0  0.3847180674031319  0.4583472173808036  0.7213696785136132  1.0000
  C   C21       1.0  0.19915321612321524  0.6346540608311724  0.02253370567662722  1.0000
  C   C22       1.0  0.30025900987958337  0.3570330983712357  0.5221879108036814  1.0000
  C   C23       1.0  0.38079941502104414  0.5411233315247633  0.24770867894969936  1.0000
  C   C24       1.0  0.11220375808536592  0.44868345422509553  0.7565037078404864  1.0000
  C   C25       1.0  0.7924059952713258  0.1405374350867307  0.010793781707506112  1.0000
  C   C26       1.0  0.7147247129113901  0.8606809606623221  0.4897990957424797  1.0000
  C   C27       1.0  0.6200036986318077  0.04175559167311686  0.7464884235723653  1.0000
  C   C28       1.0  0.8891646741013975  0.9703299061328701  0.25045575860380737  1.0000
  C   C29       1.0  0.7098154271279451  0.13007267641684714  0.52212758184306  1.0000
  C   C30       1.0  0.8034425149293025  0.8753035254166022  0.032366522736199485  1.0000
  C   C31       1.0  0.8873638883917424  0.06408293353705184  0.7942077915570676  1.0000
  C   C32       1.0  0.6169808933741577  0.955530842936442  0.2847130730469022  1.0000
  C   C33       1.0  0.7094358096869414  0.24571350366146053  0.5072417595263652  1.0000
  C   C34       1.0  0.798719527487953  0.7558255437677079  0.018418149953964694  1.0000
  C   C35       1.0  0.9939320946633404  0.45513565950379115  0.7479311969130568  1.0000
  C   C36       1.0  0.497702625558207  0.543506156756503  0.24904274110646524  1.0000
  C   C37       1.0  0.7801507180260523  0.2559117971159308  0.9992133609039775  1.0000
  C   C38       1.0  0.7193275203413223  0.7478351377615221  0.4868395189746654  1.0000
  C   C39       1.0  0.5009076801200883  0.4701765463046532  0.7251877347408054  1.0000
  C   C40       1.0  0.9958242533143747  0.5336946488445601  0.22354569841613897  1.0000
  C   C41       1.0  0.1925489007295103  0.744604293642754  0.030009220858298595  1.0000
  C   C42       1.0  0.3060448888232781  0.24010232324362848  0.5259742072947331  1.0000
  C   C43       1.0  0.4979531620630234  0.9592226355167578  0.2942512756272434  1.0000
  C   C44       1.0  0.005954471882797074  0.05706595961141874  0.7867539144883402  1.0000
  C   C45       1.0  0.285507118471611  0.7392932898665868  0.5214327398760957  1.0000
  C   C46       1.0  0.21334135370304808  0.24830195621955337  0.008841771075837945  1.0000
  C   C47       1.0  0.003905656660276202  0.9739483854837874  0.28099792064374235  1.0000
  C   C48       1.0  0.5038031665763415  0.033945222170497336  0.758712269793656  1.0000
  C   C49       1.0  0.6945428229010524  0.29964958119514656  0.4293150534650361  1.0000
  C   C50       1.0  0.812031801395707  0.7011213912532832  0.9518387155235918  1.0000
  C   C51       1.0  0.9392661953351429  0.444346842900069  0.6859453224487019  1.0000
  C   C52       1.0  0.5540857837151845  0.5553877798096767  0.18499137772273433  1.0000
  C   C53       1.0  0.7928726620758262  0.3134792037849154  0.04479797421526487  1.0000
  C   C54       1.0  0.6909395226855574  0.6903644054220183  0.5206495311485391  1.0000
  C   C55       1.0  0.5583422467926887  0.4595655801200511  0.7934947583692203  1.0000
  C   C56       1.0  0.9383044813647154  0.545699549664469  0.27681704882138924  1.0000
  C   C57       1.0  0.18707513246069865  0.8037704225791302  0.9682780645674101  1.0000
  C   C58       1.0  0.31648855005756604  0.18185847946984765  0.46777437392332916  1.0000
  C   C59       1.0  0.4407074471747887  0.9430186044297719  0.23646553687814814  1.0000
  C   C60       1.0  0.06360805802436358  0.06319252192969708  0.7312572450676037  1.0000
  C   C61       1.0  0.30231527691154986  0.7929507116761794  0.594121097296218  1.0000
  C   C62       1.0  0.20180623192796437  0.1925515248606058  0.07672949308309934  1.0000
  C   C63       1.0  0.0564430251881726  0.9529052991995516  0.343177453664965  1.0000
  C   C64       1.0  0.45039784890109036  0.05411230903545262  0.8210928463060625  1.0000
  C   C65       1.0  0.2951086891162937  0.6799056524010293  0.5702131239079493  1.0000
  C   C66       1.0  0.19558113930411308  0.30437439731753463  0.05924044016339659  1.0000
  C   C67       1.0  0.04840218455602797  0.5537623762585087  0.2857714545644132  1.0000
  C   C68       1.0  0.44686477368049843  0.4560981121638901  0.7881143219415089  1.0000
  C   C69       1.0  0.1805294296428403  0.6922256389803353  0.9585799768821368  1.0000
  C   C70       1.0  0.3166461013462517  0.2961437849083143  0.46051242263358527  1.0000
  C   C71       1.0  0.44359877875215487  0.5556737173513091  0.1799273500729595  1.0000
  C   C72       1.0  0.050378455156878874  0.4369920430067108  0.6891964970512561  1.0000
  C   C73       1.0  0.7991131055473888  0.20306906289402749  0.0691926666404187  1.0000
  C   C74       1.0  0.6990274533921627  0.8009328046390962  0.546065946623029  1.0000
  C   C75       1.0  0.5600781124289522  0.04971854776506651  0.8140730104513199  1.0000
  C   C76       1.0  0.9436902666398144  0.9626354393998727  0.3313311378986455  1.0000
  C   C77       1.0  0.700837001535467  0.18977520950486332  0.4425238139755286  1.0000
  C   C78       1.0  0.8180071466606551  0.8123276057468031  0.9623156770448101  1.0000
  C   C79       1.0  0.9513779006370096  0.07492432685216267  0.7297893680581998  1.0000
  C   C80       1.0  0.5543609568251097  0.9505088519093732  0.22418377127908753  1.0000
  C   C81       1.0  0.6725686922602124  0.2973126713885095  0.2987445474596504  1.0000
  C   C82       1.0  0.8505826551528437  0.7044390675713621  0.8417707596386141  1.0000
  C   C83       1.0  0.9402317379387755  0.4131133007319375  0.5704268027290222  1.0000
  C   C84       1.0  0.5535611121076527  0.5771074040766507  0.051490226642858225  1.0000
  C   C85       1.0  0.8168327876795437  0.32296128750986136  0.16313025213938112  1.0000
  C   C86       1.0  0.6387345850814691  0.6907609609426677  0.6036268790522575  1.0000
  C   C87       1.0  0.5575229912069276  0.4365786138437817  0.9230156125606421  1.0000
  C   C88       1.0  0.9362636904139727  0.5708248804529181  0.4048321956508694  1.0000
  C   C89       1.0  0.16591177948030703  0.8094719998355004  0.8419537474663685  1.0000
  C   C90       1.0  0.33854360089114455  0.18248068185840263  0.3376135362947045  1.0000
  C   C91       1.0  0.4400147106669526  0.9251036720166635  0.10403503919452874  1.0000
  C   C92       1.0  0.06633113515062948  0.08728588469693888  0.6044078137544163  1.0000
  C   C93       1.0  0.32941272142048683  0.7888589953188553  0.7179089281587062  1.0000
  C   C94       1.0  0.17146281591075446  0.19232046431098213  0.19937342237400815  1.0000
  C   C95       1.0  0.04970176109587509  0.9340700913718978  0.47573988804288075  1.0000
  C   C96       1.0  0.4515585323478904  0.09345679706568255  0.9349896627401986  1.0000
  C   C97       1.0  0.3193614401568162  0.6748917315948108  0.7028409971731042  1.0000
  C   C98       1.0  0.1705171949042389  0.3074854565310753  0.18530750261585893  1.0000
  C   C99       1.0  0.04743947411996343  0.5838997944221561  0.40566031220525833  1.0000
  C   C100      1.0  0.4460661722898053  0.4349918018445328  0.9203397054811371  1.0000
  C   C101      1.0  0.16830354252189886  0.6949854510943988  0.821715903725282  1.0000
  C   C102      1.0  0.34524399823150714  0.29705811449253977  0.33468444521942764  1.0000
  C   C103      1.0  0.44390217300463897  0.5839458495311777  0.0551793972007589  1.0000
  C   C104      1.0  0.04893478296395197  0.40519529401259885  0.5711828370986489  1.0000
  C   C105      1.0  0.8226597795237078  0.21163506197733445  0.1977475727985275  1.0000
  C   C106      1.0  0.650745700642417  0.7988388604355715  0.6411059059623732  1.0000
  C   C107      1.0  0.5598549332730884  0.08489600600239025  0.9336567822907993  1.0000
  C   C108      1.0  0.9354406744477693  0.9405113573746011  0.4640936118567486  1.0000
  C   C109      1.0  0.6862070788689862  0.18917136282763636  0.30971558741225974  1.0000
  C   C110      1.0  0.857142463769021  0.8154244514125439  0.8514403488250345  1.0000
  C   C111      1.0  0.9556298883363652  0.10334068598351753  0.6025787183702823  1.0000
  C   C112      1.0  0.5539580821358134  0.9254591399125783  0.09465681896685793  1.0000
  C   C113      1.0  0.6693605864650077  0.24101548886121765  0.2355192014543795  1.0000
  C   C114      1.0  0.878235505046604  0.7606540223257362  0.793490026628252  1.0000
  C   C115      1.0  0.9928395266782784  0.394140183986686  0.5033031102097557  1.0000
  C   C116      1.0  0.5012430897522503  0.5964175098721513  0.9872739644930156  1.0000
  C   C117      1.0  0.8317808515501192  0.2729037329334674  0.24639975091295788  1.0000
  C   C118      1.0  0.618213910851095  0.7450042322257904  0.6690249212589362  1.0000
  C   C119      1.0  0.49982098392453084  0.4231943684677035  0.9874865508205458  1.0000
  C   C120      1.0  0.9923434519819162  0.5852437372753193  0.47782458191714006  1.0000
  C   C121      1.0  0.1605527791201767  0.7549979111153726  0.7694041301530289  1.0000
  C   C122      1.0  0.352783172754493  0.23785469088199032  0.2718467237879137  1.0000
  C   C123      1.0  0.49581987974752834  0.9151169337178108  0.030316471649719207  1.0000
  C   C124      1.0  0.013425203522107075  0.10656085988663376  0.5363220984741869  1.0000
  C   C125      1.0  0.334546602540825  0.728405475053822  0.7819156892110255  1.0000
  C   C126      1.0  0.1536677067280777  0.25134271162943933  0.25834100404716426  1.0000
  C   C127      1.0  0.9876032395272477  0.930118425325348  0.541670099343091  1.0000
  C   C128      1.0  0.506888822139025  0.10735084260066492  0.996154819336686  1.0000
  N   N1        1.0  0.6477735817666879  0.2330469114474468  0.10581942517650889  1.0000
  N   N2        1.0  0.9190720861829492  0.7581724206312533  0.6897705366988206  1.0000
  N   N3        1.0  0.9920756827461736  0.36682141754267955  0.3786072428333216  1.0000
  N   N4        1.0  0.5026923454704126  0.6190385431206923  0.8617844031391731  1.0000
  N   N5        1.0  0.8573070182181167  0.2837241983172504  0.3708446454517933  1.0000
  N   N6        1.0  0.568729032021822  0.7481928258117898  0.7521018901387908  1.0000
  N   N7        1.0  0.5026870764641727  0.39636101410504665  0.11449513952958919  1.0000
  N   N8        1.0  0.984329499444428  0.6076919748391726  0.6078127262260752  1.0000
  N   N9        1.0  0.15634639495640212  0.7612557210985856  0.6345960598407046  1.0000
  N   N10       1.0  0.3703487140613434  0.23397493949049433  0.13573283343727505  1.0000
  N   N11       1.0  0.4987742828168725  0.8908453896327119  0.9015036898536746  1.0000
  N   N12       1.0  0.019633606483722057  0.1262550422479671  0.407929982083257  1.0000
  N   N13       1.0  0.35873315056504007  0.726017535082978  0.9033124663542855  1.0000
  N   N14       1.0  0.1195892934477049  0.255452778313535  0.3755503092917651  1.0000
  N   N15       1.0  0.9842051049996617  0.9133169725873566  0.6693979400082258  1.0000
  N   N16       1.0  0.5084725815096048  0.14252928914049562  0.1090192185926748  1.0000
  O   O1        1.0  0.8336745802556397  0.4258735562298769  0.7015303609159882  1.0000
  O   O2        1.0  0.6607154456926252  0.5791273760597839  0.21938771713972435  1.0000
  O   O3        1.0  0.8130108151473857  0.5903976136985556  0.9428703601327597  1.0000
  O   O4        1.0  0.6802782217393262  0.40857877454964053  0.43806354940075487  1.0000
  O   O5        1.0  0.6625849854740339  0.42893141136983876  0.7582708750789675  1.0000
  O   O6        1.0  0.8327218486285564  0.5638783497831357  0.24575961718379558  1.0000
  O   O7        1.0  0.6818496987702816  0.581623773738516  0.49906103125023443  1.0000
  O   O8        1.0  0.812795588445033  0.418599816435453  0.006505722424640375  1.0000
  O   O9        1.0  0.33282959498041564  0.9192482109924578  0.26432190596747474  1.0000
  O   O10       1.0  0.17098428731507181  0.07356340632868165  0.75790963804053  1.0000
  O   O11       1.0  0.3176317585784596  0.07568268036159645  0.4806449185872742  1.0000
  O   O12       1.0  0.18523821903101825  0.9133262632921597  0.9976157829159601  1.0000
  O   O13       1.0  0.1578654281242463  0.9182796074392027  0.3172038911626808  1.0000
  O   O14       1.0  0.34448687869331085  0.06864109972925357  0.8028181151556278  1.0000
  O   O15       1.0  0.18518185222605613  0.08560051588879232  0.07611881854256926  1.0000
  O   O16       1.0  0.32054944757535975  0.9009999138145643  0.5665088583399883  1.0000
  O   O17       1.0  0.15818744892898143  0.5634000844339615  0.2878409365348659  1.0000
  O   O18       1.0  0.34278887749012216  0.4236704180002328  0.768554129910599  1.0000
  O   O19       1.0  0.1790186493965536  0.41018834334225635  0.023829101543225404  1.0000
  O   O20       1.0  0.3135203606046969  0.5769118543817388  0.5255497051998149  1.0000
  O   O21       1.0  0.33202419535806  0.5580550920516106  0.1904285213695372  1.0000
  O   O22       1.0  0.15510635938591227  0.4176938290279648  0.7076211468868874  1.0000
  O   O23       1.0  0.3234668334102198  0.40581602944886686  0.45841056797154983  1.0000
  O   O24       1.0  0.18373650902615526  0.5862572313209207  0.9607107799366026  1.0000
  O   O25       1.0  0.6641867937877839  0.07816196649053388  0.7796039798233272  1.0000
  O   O26       1.0  0.8413156030230947  0.9364138859375531  0.2781940522396108  1.0000
  O   O27       1.0  0.6874387765282105  0.9067355148331505  0.5456277679598104  1.0000
  O   O28       1.0  0.8221537376582274  0.09494491381448011  0.05834345551111449  1.0000
  O   O29       1.0  0.8423131133835748  0.09361787646352775  0.7387710513006946  1.0000
  O   O30       1.0  0.6660187382661125  0.9326112993091138  0.23318279703493014  1.0000
  O   O31       1.0  0.8361120795363175  0.9215735693033966  0.9888886412083732  1.0000
  O   O32       1.0  0.6816725218167368  0.08287554777068688  0.4830784892141905  1.0000
  O   O33       1.0  0.7629805977970393  0.4921925211490908  0.834300695241795  1.0000
  O   O34       1.0  0.7419762473282457  0.5048515435070726  0.33710939517814  1.0000
  O   O35       1.0  0.7447147395319416  0.5129213593317705  0.085093182664874  1.0000
  O   O36       1.0  0.7453811100726118  0.486214692986225  0.5827006352701505  1.0000
  O   O37       1.0  0.25829644903093446  0.9790894655346025  0.4169822200334109  1.0000
  O   O38       1.0  0.25192346060445  0.00874919425574652  0.9226120924020087  1.0000
  O   O39       1.0  0.26506414500625397  0.0014883164246133013  0.6686802939377571  1.0000
  O   O40       1.0  0.24208704205805873  0.9798332377053479  0.1657498547429537  1.0000
  O   O41       1.0  0.24054068919178573  0.5045965445718935  0.10464603494728567  1.0000
  O   O42       1.0  0.25277264868539406  0.4796393937752983  0.5992886859289848  1.0000
  O   O43       1.0  0.24298312070439423  0.482265384903993  0.8601837466217401  1.0000
  O   O44       1.0  0.25541226103457915  0.5010265772198302  0.35201389200750854  1.0000
  O   O45       1.0  0.7528020769845833  0.006884166533882588  0.6390292846327014  1.0000
  O   O46       1.0  0.7615326322078712  0.9989203141775549  0.1485280641481818  1.0000
  O   O47       1.0  0.7477568677646127  0.9941869151949907  0.3945819264662626  1.0000
  O   O48       1.0  0.7622369813659092  0.01677311038227886  0.8874529034153008  1.0000
  O   O49       1.0  0.7341574910219602  0.36127883281376594  0.6004432493889741  1.0000
  O   O50       1.0  0.7571587915159222  0.6368158075564858  0.10582090845009456  1.0000
  O   O51       1.0  0.882456870433057  0.4890036727456701  0.8532188960135091  1.0000
  O   O52       1.0  0.6172800776640224  0.501476226459714  0.3358717045478272  1.0000
  O   O53       1.0  0.7613486572434787  0.36833050664364664  0.8491197191675138  1.0000
  O   O54       1.0  0.7451414987892528  0.6310975320739266  0.3598642176543771  1.0000
  O   O55       1.0  0.618270249808783  0.4930621362031472  0.6002453728342407  1.0000
  O   O56       1.0  0.8780381580535495  0.504886869982385  0.09496605400506206  1.0000
  O   O57       1.0  0.22686991127468267  0.8553607407791918  0.1598852424540612  1.0000
  O   O58       1.0  0.27907616959184334  0.1283276089707771  0.6521947119438835  1.0000
  O   O59       1.0  0.3867397385619624  0.9773187450044688  0.4096621165607051  1.0000
  O   O60       1.0  0.11939499495323462  0.014529073487325699  0.9104370881206036  1.0000
  O   O61       1.0  0.2512850866156504  0.853044140395766  0.42703561755658126  1.0000
  O   O62       1.0  0.24220173831997277  0.13227083978783602  0.9081380091512926  1.0000
  O   O63       1.0  0.11804103679297419  0.9874332995765058  0.1675516785214193  1.0000
  O   O64       1.0  0.39007356087528533  0.0036482611368834103  0.6611535115165424  1.0000
  O   O65       1.0  0.2656460664097804  0.631869696069595  0.3645145907524168  1.0000
  O   O66       1.0  0.23423354538313504  0.36330215053722237  0.868902705767096  1.0000
  O   O67       1.0  0.11441660428343382  0.5096179668072333  0.12205614038481533  1.0000
  O   O68       1.0  0.38059591060716313  0.4936496623420136  0.6161289353363019  1.0000
  O   O69       1.0  0.23619845092581782  0.6337805425180454  0.12355534295358835  1.0000
  O   O70       1.0  0.2644193772109788  0.35879621355972835  0.6210866505796983  1.0000
  O   O71       1.0  0.3800236205442656  0.50348879799173  0.344727203447097  1.0000
  O   O72       1.0  0.11186342071560336  0.4887040714847186  0.8508982034887637  1.0000
  O   O73       1.0  0.7590149016963298  0.13571632739983358  0.9118432118338237  1.0000
  O   O74       1.0  0.7519053228859014  0.8641312307616872  0.3878420265760552  1.0000
  O   O75       1.0  0.6260073723752375  0.9973945459854183  0.6630324723975664  1.0000
  O   O76       1.0  0.8914095405762478  0.005115938021064137  0.14741742326773571  1.0000
  O   O77       1.0  0.7410193544868044  0.13602474098441306  0.6235032657196196  1.0000
  O   O78       1.0  0.7596359165941088  0.8762586706975402  0.12018414204894069  1.0000
  O   O79       1.0  0.8881344598689814  0.027966390511101117  0.8923403085438347  1.0000
  O   O80       1.0  0.6193847126451141  0.9786705005573505  0.3994464764116719  1.0000
