data_image0
_chemical_formula_structural       Al16H96C128N16O80
_chemical_formula_sum              "Al16 H96 C128 N16 O80"
_cell_length_a       21.6116
_cell_length_b       21.61518
_cell_length_c       10.18042
_cell_angle_alpha    89.73663999999998
_cell_angle_beta     89.71647
_cell_angle_gamma    90.60553000000002

_space_group_name_H-M_alt    "P 1"
_space_group_IT_number       1

loop_
  _space_group_symop_operation_xyz
  'x, y, z'

loop_
  _atom_site_type_symbol
  _atom_site_label
  _atom_site_symmetry_multiplicity
  _atom_site_fract_x
  _atom_site_fract_y
  _atom_site_fract_z
  _atom_site_occupancy
  Al  Al1       1.0  0.744045628166676  0.44279177446217144  0.7266208019713644  1.0000
  Al  Al2       1.0  0.7491859721420022  0.5749168816511138  0.22393442513093106  1.0000
  Al  Al3       1.0  0.8228790045287864  0.514825782070151  0.9602321491611111  1.0000
  Al  Al4       1.0  0.6773655543829555  0.5015011196846135  0.45883007113979435  1.0000
  Al  Al5       1.0  0.25223944343506816  0.9178490041095437  0.31362763406976496  1.0000
  Al  Al6       1.0  0.25938876291893564  0.06176763798868924  0.812792631010751  1.0000
  Al  Al7       1.0  0.326015778131411  0.9801214710777272  0.5693547976874319  1.0000
  Al  Al8       1.0  0.18327134806943463  0.004030634102117903  0.07872028181166812  1.0000
  Al  Al9       1.0  0.24811961065338864  0.5622022703202315  0.2246866982723726  1.0000
  Al  Al10      1.0  0.24212715314782304  0.42383618833724346  0.7301958567286054  1.0000
  Al  Al11      1.0  0.1780553186424327  0.5026950750744141  0.9664420765569657  1.0000
  Al  Al12      1.0  0.3127060955575892  0.4820346263092207  0.45864646053359415  1.0000
  Al  Al13      1.0  0.7611829551688792  0.07645679778779642  0.7561672768337437  1.0000
  Al  Al14      1.0  0.7482433612831216  0.9368923823488431  0.2529029213211906  1.0000
  Al  Al15      1.0  0.6818753882663268  0.0022658962406465477  0.5217312442648627  1.0000
  Al  Al16      1.0  0.826949681741926  0.013655262175872984  0.027772188892987312  1.0000
  H   H1        1.0  0.6220707571880169  0.28422590690785765  0.07853562523106614  1.0000
  H   H2        1.0  0.924967750272183  0.7345771424659311  0.6255710777794129  1.0000
  H   H3        1.0  0.9593012827395775  0.3276106686606939  0.3628857127448404  1.0000
  H   H4        1.0  0.533704214408368  0.6056405607383272  0.7724065126248455  1.0000
  H   H5        1.0  0.8597684903994346  0.3085462051438038  0.4029497377804648  1.0000
  H   H6        1.0  0.5741390612186833  0.701642234866239  0.8436247160632647  1.0000
  H   H7        1.0  0.5408861304912882  0.41063318861275105  0.1339849615253128  1.0000
  H   H8        1.0  0.9585596255349539  0.579150085835129  0.6529585516723921  1.0000
  H   H9        1.0  0.06795180858970537  0.79693070802638  0.6692660062608307  1.0000
  H   H10       1.0  0.3334453368867003  0.16259518933324868  0.09908681395517951  1.0000
  H   H11       1.0  0.44983334065049935  0.9192458691009436  0.8527556863718069  1.0000
  H   H12       1.0  0.07741738649810731  0.09502499710056332  0.3724586042810788  1.0000
  H   H13       1.0  0.38678712485372163  0.7454325764323229  0.9269396000616622  1.0000
  H   H14       1.0  0.13392792245033736  0.2436964242930276  0.44038297770490104  1.0000
  H   H15       1.0  0.014876157757029544  0.9106080443500686  0.7490729217069767  1.0000
  H   H16       1.0  0.4880035832936706  0.1653214657151254  0.1696351798830077  1.0000
  H   H17       1.0  0.3630262342728547  0.6781929859410015  0.933775452036057  1.0000
  H   H18       1.0  0.1432270131433817  0.3202922179847107  0.4263365163351351  1.0000
  H   H19       1.0  0.029440146730463405  0.5668440093316667  0.6622142328735774  1.0000
  H   H20       1.0  0.46238601792057504  0.4077006919809869  0.1468766423467037  1.0000
  H   H21       1.0  0.09098832251945105  0.7249376190195536  0.6501949644602659  1.0000
  H   H22       1.0  0.3448947551082555  0.23796186493305307  0.0543399488290955  1.0000
  H   H23       1.0  0.45557130249688366  0.6231752504205078  0.8003274021505484  1.0000
  H   H24       1.0  0.03908096357761911  0.3260482905046998  0.3821190718260974  1.0000
  H   H25       1.0  0.8516925595392192  0.23340932897194544  0.40285642906662106  1.0000
  H   H26       1.0  0.5536154822963778  0.7738858949647446  0.8137412473360205  1.0000
  H   H27       1.0  0.5649241503025155  0.16568797288217685  0.13072523010407985  1.0000
  H   H28       1.0  0.9434499561051275  0.9337925235787934  0.7298930989791589  1.0000
  H   H29       1.0  0.654919695474934  0.21575102411170807  0.06019175388553099  1.0000
  H   H30       1.0  0.9288376458094177  0.8110722293099796  0.6464549726271982  1.0000
  H   H31       1.0  0.002396197828522739  0.10693068010451216  0.3412007293378384  1.0000
  H   H32       1.0  0.5221309460748865  0.8965180690339938  0.8423243674381109  1.0000
  H   H33       1.0  0.7307873190368269  0.2511409800815268  0.6018633433783103  1.0000
  H   H34       1.0  0.7587446063307971  0.7564176767492465  0.08153468556297086  1.0000
  H   H35       1.0  0.9899279455143976  0.45852130365503063  0.8662624100235526  1.0000
  H   H36       1.0  0.501820835752448  0.5141822916171849  0.33239419418370236  1.0000
  H   H37       1.0  0.7826855795890975  0.2596024603003752  0.8626586151215633  1.0000
  H   H38       1.0  0.7361625257393747  0.7621882930898277  0.39144931552052425  1.0000
  H   H39       1.0  0.48500299034103944  0.465489865369171  0.5854892328324521  1.0000
  H   H40       1.0  0.0001387886220762847  0.5352250526954375  0.10143165633496067  1.0000
  H   H41       1.0  0.24246384528752024  0.7528105312178837  0.11726709692332038  1.0000
  H   H42       1.0  0.28008428093006077  0.2429421610235412  0.6246442744165566  1.0000
  H   H43       1.0  0.5050261298384637  0.9695968902561977  0.3957254518167934  1.0000
  H   H44       1.0  0.0043240402286606194  0.029143237095126368  0.9067064959199472  1.0000
  H   H45       1.0  0.26165362374263823  0.7381731697798811  0.42006536036701536  1.0000
  H   H46       1.0  0.22280244514190956  0.23915533966657063  0.9131701788348879  1.0000
  H   H47       1.0  0.014264395829195253  0.9797775304560413  0.1940075809654596  1.0000
  H   H48       1.0  0.5035671256812159  0.011952010746293025  0.693598214558312  1.0000
  H   H49       1.0  0.6495010244971484  0.3429648004191021  0.26703622786824804  1.0000
  H   H50       1.0  0.8620199441643676  0.665063698249722  0.7753841146047772  1.0000
  H   H51       1.0  0.8958400767812134  0.39904582988275766  0.5118256043660357  1.0000
  H   H52       1.0  0.5967704816672756  0.5812550795198959  0.9794115506575739  1.0000
  H   H53       1.0  0.8333940628482851  0.36734749126223515  0.19676670951612518  1.0000
  H   H54       1.0  0.6329465480188315  0.6456191831408373  0.6690639136728327  1.0000
  H   H55       1.0  0.6008147074429174  0.40854329989425997  0.9170610480783311  1.0000
  H   H56       1.0  0.9034731050081137  0.588500697820392  0.45731890415229703  1.0000
  H   H57       1.0  0.13008824808633968  0.8600490367729824  0.8463693183557945  1.0000
  H   H58       1.0  0.3430033377725622  0.1191516024263554  0.3216621773844734  1.0000
  H   H59       1.0  0.3972706906721003  0.902690460928922  0.06610487707907847  1.0000
  H   H60       1.0  0.12477523279552273  0.07890077360209438  0.5933434719640659  1.0000
  H   H61       1.0  0.3455124083028835  0.8168659211165379  0.7630325801383676  1.0000
  H   H62       1.0  0.1660843810573405  0.1637590896219783  0.28090511192079604  1.0000
  H   H63       1.0  0.08950993763391063  0.9161586661010165  0.5574404399378453  1.0000
  H   H64       1.0  0.42030605514010194  0.1093571039387648  0.020954147813713853  1.0000
  H   H65       1.0  0.33081114896434116  0.6146325169581082  0.7253655979074363  1.0000
  H   H66       1.0  0.1552828624618247  0.36170843635554173  0.21339894011720434  1.0000
  H   H67       1.0  0.10161385023558367  0.5697608071508969  0.4552208048246445  1.0000
  H   H68       1.0  0.3948770400377601  0.4179204671519277  0.9487660396360192  1.0000
  H   H69       1.0  0.13729319219763206  0.6675625957970289  0.8030819580929085  1.0000
  H   H70       1.0  0.32838130656060355  0.31755246614128385  0.25154142842609345  1.0000
  H   H71       1.0  0.39863901153597325  0.5895259339106409  0.012815416001577075  1.0000
  H   H72       1.0  0.09664264441570232  0.40074084307995517  0.5202060736030361  1.0000
  H   H73       1.0  0.8349246560497171  0.1671254179788097  0.21596441600480448  1.0000
  H   H74       1.0  0.6304433609899586  0.840633750772337  0.7042862498399746  1.0000
  H   H75       1.0  0.6212738013963396  0.11583932094636683  0.954227391093581  1.0000
  H   H76       1.0  0.8931123663345648  0.9362301560749379  0.5211353533451701  1.0000
  H   H77       1.0  0.6712986302767289  0.14193336221813765  0.289947528831672  1.0000
  H   H78       1.0  0.8644717458137968  0.8644868246797198  0.796511756488508  1.0000
  H   H79       1.0  0.9231724444472936  0.09951062067214135  0.5463173948940155  1.0000
  H   H80       1.0  0.5953404543405065  0.9229187933269076  0.03399492138118668  1.0000
  H   H81       1.0  0.277171736902686  0.5035438443668457  0.8960101503770034  1.0000
  H   H82       1.0  0.24148720297499707  0.5146522309258665  0.6326564193178209  1.0000
  H   H83       1.0  0.20851174437624756  0.48341550129191224  0.3640389785860173  1.0000
  H   H84       1.0  0.245447721482802  0.4628380979370394  0.12308694283663653  1.0000
  H   H85       1.0  0.759053569318483  0.4762133567403966  0.13303047006142366  1.0000
  H   H86       1.0  0.7749170175253461  0.5005849650234035  0.3899345592074097  1.0000
  H   H87       1.0  0.7385859700064177  0.5396090826255996  0.6534438964710347  1.0000
  H   H88       1.0  0.7168544925057071  0.5060300399569718  0.9206394799843056  1.0000
  H   H89       1.0  0.2666365447735295  0.9685952006053508  0.922801821757325  1.0000
  H   H90       1.0  0.28415687234616055  0.9955704276656584  0.14959220685746766  1.0000
  H   H91       1.0  0.2730119315016254  0.014144706747741707  0.4020480066527085  1.0000
  H   H92       1.0  0.2262708761039609  0.9826370350173252  0.6654819769190742  1.0000
  H   H93       1.0  0.7840785715998931  0.0012987064079692523  0.6020289572591044  1.0000
  H   H94       1.0  0.7267926528533571  0.9994726691113113  0.07767672338252136  1.0000
  H   H95       1.0  0.7509518775044219  0.9841513681880324  0.8565195765910111  1.0000
  H   H96       1.0  0.7533032234595353  0.031450263232993825  0.33973280517801596  1.0000
  C   C1        1.0  0.7030979157028974  0.37099352881682557  0.494123087749045  1.0000
  C   C2        1.0  0.7931913357083542  0.6424518968905341  0.9786289273810485  1.0000
  C   C3        1.0  0.8817864315693758  0.4588614483218141  0.7363375356826001  1.0000
  C   C4        1.0  0.6155797045191974  0.5452172182858128  0.22276154373330875  1.0000
  C   C5        1.0  0.7974729447623361  0.37694263084284085  0.9478429857137436  1.0000
  C   C6        1.0  0.6974532072731815  0.6375938850850561  0.44874558675624904  1.0000
  C   C7        1.0  0.6092663518739003  0.45919734545998664  0.6821208409946726  1.0000
  C   C8        1.0  0.8824777791814434  0.5567169068051958  0.20027487059925275  1.0000
  C   C9        1.0  0.19755872259675986  0.8688535412036393  0.06878684298737574  1.0000
  C   C10       1.0  0.30464499629130704  0.11990591524346102  0.568777034139097  1.0000
  C   C11       1.0  0.3901065490892402  0.9385309063076254  0.3289308112637559  1.0000
  C   C12       1.0  0.12453360601594733  0.050570438463646145  0.8327198065373677  1.0000
  C   C13       1.0  0.2943737868477068  0.8447293908644228  0.5328889409371751  1.0000
  C   C14       1.0  0.21449444805618179  0.13623910917726645  0.04649479481825769  1.0000
  C   C15       1.0  0.12015200400033803  0.9618611464562381  0.307378402064002  1.0000
  C   C16       1.0  0.3944566358211309  0.03892423471514174  0.7990763316066526  1.0000
  C   C17       1.0  0.28589623191061664  0.6153648213889071  0.47399829303039703  1.0000
  C   C18       1.0  0.19834022002390245  0.3668946116363151  0.9734482179864895  1.0000
  C   C19       1.0  0.1140844367400889  0.5369718235636731  0.19551741791823168  1.0000
  C   C20       1.0  0.37465651622913915  0.4487669656211183  0.6973490146425477  1.0000
  C   C21       1.0  0.20969599791476667  0.6331995438837337  0.010464403793059712  1.0000
  C   C22       1.0  0.2916624820053299  0.346700531881711  0.5046869072174599  1.0000
  C   C23       1.0  0.38161178655562  0.5357452462488583  0.23354742104510506  1.0000
  C   C24       1.0  0.10918011505154589  0.4516608140436448  0.7548942489292777  1.0000
  C   C25       1.0  0.8005495164380786  0.1484606485332412  0.9734645781994494  1.0000
  C   C26       1.0  0.7043411176317428  0.8698582873017858  0.48331284152922643  1.0000
  C   C27       1.0  0.6214008156074983  0.052979771480352426  0.7470680250047259  1.0000
  C   C28       1.0  0.8872249238792017  0.9617332752742908  0.2568954694600825  1.0000
  C   C29       1.0  0.7139967937937411  0.1358391916663637  0.5151928701753296  1.0000
  C   C30       1.0  0.79904664697812  0.8778346088102806  0.02265015247610724  1.0000
  C   C31       1.0  0.8950648570918862  0.04887227226368564  0.7812542651032565  1.0000
  C   C32       1.0  0.6181106032546568  0.9609959671979451  0.27724394772925387  1.0000
  C   C33       1.0  0.7147540019893708  0.25371258950652964  0.499637264374565  1.0000
  C   C34       1.0  0.7861148625531008  0.7580665311833236  0.9925909276165641  1.0000
  C   C35       1.0  0.9944992103330301  0.4516274415947235  0.7558735857168772  1.0000
  C   C36       1.0  0.49890623681816454  0.5364906595627451  0.2332000000616229  1.0000
  C   C37       1.0  0.7931896471703274  0.26082127184212717  0.9695163828876705  1.0000
  C   C38       1.0  0.7060733516623605  0.753120049482936  0.47872552622228565  1.0000
  C   C39       1.0  0.49080844151384434  0.45511526691905624  0.6924819942116629  1.0000
  C   C40       1.0  0.998741645344287  0.5465890930536342  0.20482263063417486  1.0000
  C   C41       1.0  0.2102214970336244  0.7533564053204362  0.03668281154312319  1.0000
  C   C42       1.0  0.3018862679743861  0.2349291389344294  0.5283605862464154  1.0000
  C   C43       1.0  0.5017369593183  0.9606128579909213  0.29154341431612113  1.0000
  C   C44       1.0  0.007688105672595036  0.046403374150931403  0.8095838682097435  1.0000
  C   C45       1.0  0.28817134893177515  0.7304933464001114  0.5113588152217201  1.0000
  C   C46       1.0  0.2099962615723335  0.2507217692277124  0.015223822863945857  1.0000
  C   C47       1.0  0.004759697269490548  0.9675694626238889  0.29228029873968625  1.0000
  C   C48       1.0  0.5103086014913543  0.03947093844168987  0.7774657829938417  1.0000
  C   C49       1.0  0.6959273841262543  0.30843723424553765  0.4367949064852203  1.0000
  C   C50       1.0  0.8062407899471727  0.7048065560539802  0.9260045031366311  1.0000
  C   C51       1.0  0.9412797856939422  0.43739984865463477  0.6860812895214896  1.0000
  C   C52       1.0  0.5533086800367896  0.5499015757465249  0.16023489129482302  1.0000
  C   C53       1.0  0.802744494178648  0.3174322160283311  0.029057590835439306  1.0000
  C   C54       1.0  0.6835343433664476  0.6972820501080955  0.5228584300307417  1.0000
  C   C55       1.0  0.5500218911172899  0.4477202272768523  0.7516885204541682  1.0000
  C   C56       1.0  0.9426247368952909  0.5582163963997547  0.27304335426201354  1.0000
  C   C57       1.0  0.18790572709739484  0.8111669011124295  0.9921883375208865  1.0000
  C   C58       1.0  0.3152359883903366  0.17577794617499637  0.4792183021233624  1.0000
  C   C59       1.0  0.44547684800682286  0.9376851630325992  0.2432228421489282  1.0000
  C   C60       1.0  0.06579642637021861  0.05522979070958623  0.7496289273017203  1.0000
  C   C61       1.0  0.30489632142234074  0.7829478895132925  0.5889618474114439  1.0000
  C   C62       1.0  0.20253191083323502  0.20006918267356258  0.09662964650834584  1.0000
  C   C63       1.0  0.05638310984541366  0.9539506935682529  0.3688329689122656  1.0000
  C   C64       1.0  0.4576209304541921  0.05446503549132544  0.8512252083409844  1.0000
  C   C65       1.0  0.2969312330841127  0.670521625792373  0.5584989255791974  1.0000
  C   C66       1.0  0.19094755289520576  0.310176101389764  0.05628719923308404  1.0000
  C   C67       1.0  0.055781497118380756  0.5492518468818736  0.2717078176723654  1.0000
  C   C68       1.0  0.4344284871812556  0.44317907503894943  0.7629509450823334  1.0000
  C   C69       1.0  0.1949858141331104  0.6986752993969425  0.9623842828684996  1.0000
  C   C70       1.0  0.3078453132627258  0.28651326655673004  0.4475976086380601  1.0000
  C   C71       1.0  0.44294781403696504  0.5495219751731651  0.1685041346589048  1.0000
  C   C72       1.0  0.04974225125099374  0.43530201151435527  0.689536347445649  1.0000
  C   C73       1.0  0.8018759255099148  0.20938432253515993  0.0443893500238161  1.0000
  C   C74       1.0  0.6879719003084157  0.8076297357023835  0.5441257825340385  1.0000
  C   C75       1.0  0.5663740143789248  0.062463563974482265  0.8190047526901607  1.0000
  C   C76       1.0  0.9449061689328858  0.958953743020794  0.3425389318907392  1.0000
  C   C77       1.0  0.6993622813016682  0.1965840727052599  0.4459957831831655  1.0000
  C   C78       1.0  0.8118087523431263  0.8164741675904144  0.9527039482981364  1.0000
  C   C79       1.0  0.9586235149018147  0.06088478328236313  0.7338491035790213  1.0000
  C   C80       1.0  0.5553137094633839  0.9524071913280783  0.21457856107778775  1.0000
  C   C81       1.0  0.6649657144861822  0.301293139530247  0.320945641313443  1.0000
  C   C82       1.0  0.8431108296372418  0.7079234474797648  0.811470997900793  1.0000
  C   C83       1.0  0.9412052359070557  0.4053815388274568  0.5645192865060887  1.0000
  C   C84       1.0  0.553084891887395  0.5718029775776687  0.030652351585944284  1.0000
  C   C85       1.0  0.8251230877985837  0.320423945114795  0.15655079530072608  1.0000
  C   C86       1.0  0.6453390552439555  0.6913963560660332  0.6318884519630823  1.0000
  C   C87       1.0  0.5532274860419536  0.42427575411277924  0.881162922642548  1.0000
  C   C88       1.0  0.9449653876942483  0.5711859336580026  0.4098049381255995  1.0000
  C   C89       1.0  0.14980697634715145  0.8169406180870057  0.8834803008857848  1.0000
  C   C90       1.0  0.3326848730126838  0.1679916523671473  0.3443975218263194  1.0000
  C   C91       1.0  0.44063591979276934  0.9150760676343395  0.11279790323802087  1.0000
  C   C92       1.0  0.074959022941378  0.07245973828592471  0.6181295059876444  1.0000
  C   C93       1.0  0.33144465750924973  0.7738116547547736  0.7108931894788815  1.0000
  C   C94       1.0  0.17310884308856545  0.2081671744366272  0.2208920109714077  1.0000
  C   C95       1.0  0.04956420186215426  0.9269486949597265  0.494034498988565  1.0000
  C   C96       1.0  0.4599999579032898  0.09169643962439324  0.9657862671027023  1.0000
  C   C97       1.0  0.3208726330031082  0.6613945057589516  0.6886071384291428  1.0000
  C   C98       1.0  0.16872085363062647  0.31646788042050233  0.18245416065269235  1.0000
  C   C99       1.0  0.05701662836629079  0.5639425767663642  0.4089249187833163  1.0000
  C   C100      1.0  0.43870662408903216  0.4296159177361673  0.8970564643342495  1.0000
  C   C101      1.0  0.1574207032035313  0.7061098035586776  0.8501114427630044  1.0000
  C   C102      1.0  0.3205262338583948  0.27866483787375224  0.31397273977123286  1.0000
  C   C103      1.0  0.44367146736170543  0.574710597029791  0.04246941739361421  1.0000
  C   C104      1.0  0.05051062317350934  0.40580249494694987  0.5675887640235983  1.0000
  C   C105      1.0  0.8245150899414884  0.20997850408287186  0.1715135955873163  1.0000
  C   C106      1.0  0.6476513268529511  0.8017788039845357  0.6516271083284603  1.0000
  C   C107      1.0  0.5701081676570275  0.09555904324008299  0.9393951522807441  1.0000
  C   C108      1.0  0.9385731415602737  0.9379840999790535  0.4744897948878707  1.0000
  C   C109      1.0  0.6746313096355652  0.19055249560849435  0.31973633032363613  1.0000
  C   C110      1.0  0.844998880459213  0.8217396283265502  0.8395400252010895  1.0000
  C   C111      1.0  0.963113713008928  0.08465962135019188  0.6066492375847617  1.0000
  C   C112      1.0  0.5515744388961992  0.9261048910324222  0.08882622570499812  1.0000
  C   C113      1.0  0.6566356481191615  0.24395978117117395  0.25028357902722076  1.0000
  C   C114      1.0  0.8678461473995893  0.7673820977888144  0.77408021201682  1.0000
  C   C115      1.0  0.9962963650590053  0.38588683495861437  0.5056125111915426  1.0000
  C   C116      1.0  0.49708517857181705  0.5821847796829446  0.9614065032025263  1.0000
  C   C117      1.0  0.8395078267157363  0.2673234358604627  0.22636706846628116  1.0000
  C   C118      1.0  0.6297619457960103  0.7445228571396186  0.7001447947852856  1.0000
  C   C119      1.0  0.49702508648732935  0.4200724493457088  0.9612903479707501  1.0000
  C   C120      1.0  0.0020872262054720814  0.572556415762933  0.47720790257433887  1.0000
  C   C121      1.0  0.13999209077455843  0.7661606319577421  0.8018734123151039  1.0000
  C   C122      1.0  0.33223664050084284  0.2196769236464222  0.25521994102478573  1.0000
  C   C123      1.0  0.49422740586873753  0.9090729532839468  0.03107053454246742  1.0000
  C   C124      1.0  0.022089125569869406  0.08440608953458548  0.5385257184741051  1.0000
  C   C125      1.0  0.34363822880543826  0.7132088920066498  0.7591015141807524  1.0000
  C   C126      1.0  0.15662441176225778  0.26700119446324755  0.2603555479215242  1.0000
  C   C127      1.0  0.9897803289608491  0.9225724295603355  0.550861423169764  1.0000
  C   C128      1.0  0.5183763692738164  0.11293787079679027  0.013262956794281022  1.0000
  N   N1        1.0  0.626418102695728  0.2389794929956068  0.12392883124246339  1.0000
  N   N2        1.0  0.9056862703114926  0.7729172614258946  0.6597070732131038  1.0000
  N   N3        1.0  0.9969406876285125  0.350404866647454  0.3951648048527171  1.0000
  N   N4        1.0  0.4966796148049161  0.6040478636431096  0.8344044575963664  1.0000
  N   N5        1.0  0.8651051020198  0.26990974554550023  0.3513650668845144  1.0000
  N   N6        1.0  0.59327597353213  0.7437433341836751  0.8133713110453479  1.0000
  N   N7        1.0  0.5023753152665819  0.404431620133986  0.08757982305254533  1.0000
  N   N8        1.0  0.9993521343368524  0.5871247295111256  0.6093805267601348  1.0000
  N   N9        1.0  0.1025485347083343  0.7662257213448842  0.689140413592911  1.0000
  N   N10       1.0  0.3505120987311305  0.20544501737427256  0.1259199197481618  1.0000
  N   N11       1.0  0.4824578475695662  0.8908841638438064  0.898933504818015  1.0000
  N   N12       1.0  0.03602246948854131  0.1092542326943807  0.41166967529700693  1.0000
  N   N13       1.0  0.3840013404986711  0.705618265275215  0.8711131832060222  1.0000
  N   N14       1.0  0.1282395555612176  0.2800328314010647  0.38049840290286235  1.0000
  N   N15       1.0  0.9757427683264412  0.9068408261296841  0.6873590354147187  1.0000
  N   N16       1.0  0.5253911528890354  0.1391742343596559  0.13660290109432874  1.0000
  O   O1        1.0  0.8327656883151057  0.43404724186556803  0.6994506787383078  1.0000
  O   O2        1.0  0.6616180721488892  0.5759849758233464  0.17285011447735224  1.0000
  O   O3        1.0  0.8142896235094351  0.5981503007985712  0.9134168865242026  1.0000
  O   O4        1.0  0.6777312193790187  0.4130276540871059  0.4287155810781293  1.0000
  O   O5        1.0  0.657226807310085  0.44073639960671357  0.7533503251707461  1.0000
  O   O6        1.0  0.8360395834546919  0.5770582171707479  0.2634223732279865  1.0000
  O   O7        1.0  0.6694739520332957  0.5884118849946162  0.4887607767280905  1.0000
  O   O8        1.0  0.8228570843651656  0.4248265233467736  0.9972660880825914  1.0000
  O   O9        1.0  0.33853521499355516  0.9161538623207796  0.2790508382131201  1.0000
  O   O10       1.0  0.17389717700661278  0.0619471689801717  0.7695314117257871  1.0000
  O   O11       1.0  0.3325573486169061  0.06825142202773234  0.5364376906723295  1.0000
  O   O12       1.0  0.16615922753155712  0.9179423736222725  0.02724436630316074  1.0000
  O   O13       1.0  0.16228199091078963  0.922750463773541  0.35379004140073644  1.0000
  O   O14       1.0  0.345352302451463  0.06687771371801728  0.8383344174837448  1.0000
  O   O15       1.0  0.20080105842396567  0.09016353305077576  0.11561307693731639  1.0000
  O   O16       1.0  0.3178344735877088  0.8924884359023986  0.5976968652035406  1.0000
  O   O17       1.0  0.1616154144339467  0.5603606951020654  0.25194338967401125  1.0000
  O   O18       1.0  0.3271518119185451  0.4227034282001656  0.7506747009937529  1.0000
  O   O19       1.0  0.17039007079110244  0.4134121074307446  0.008839837101885602  1.0000
  O   O20       1.0  0.3131407304860841  0.5674449769236963  0.5138825394136343  1.0000
  O   O21       1.0  0.3381256938708048  0.5689623168141399  0.18513896835601173  1.0000
  O   O22       1.0  0.15740551160998148  0.42302106735016154  0.71899542802482  1.0000
  O   O23       1.0  0.3159653553659668  0.3975035477320237  0.4430900905031278  1.0000
  O   O24       1.0  0.18134850705001088  0.5882279764925921  0.9504654576167492  1.0000
  O   O25       1.0  0.6696078347709  0.08594128238033974  0.7762406707199957  1.0000
  O   O26       1.0  0.8398647399529692  0.9305154131404383  0.2925442074910929  1.0000
  O   O27       1.0  0.6869567315825871  0.9166899709283196  0.5450665060756913  1.0000
  O   O28       1.0  0.8212374282899201  0.10278833977905683  0.035096357124698045  1.0000
  O   O29       1.0  0.8497780640563278  0.06547403878587373  0.708612156349996  1.0000
  O   O30       1.0  0.6657295030861259  0.9477351772555525  0.21454402536075107  1.0000
  O   O31       1.0  0.828334756382674  0.9224919154572289  0.9673843833913323  1.0000
  O   O32       1.0  0.6834018095293573  0.08785207116946925  0.47401005018373943  1.0000
  O   O33       1.0  0.7515328057066469  0.5009326937644519  0.8508629123827288  1.0000
  O   O34       1.0  0.7374421022262818  0.5102741233237659  0.343969157326276  1.0000
  O   O35       1.0  0.7614103387824187  0.5160438463857376  0.09396402116700078  1.0000
  O   O36       1.0  0.7387783791786939  0.503493946312564  0.597457012988633  1.0000
  O   O37       1.0  0.26312186717958097  0.9748139590365931  0.4515681041332443  1.0000
  O   O38       1.0  0.2501545625025477  0.008805804138225081  0.9489521973471253  1.0000
  O   O39       1.0  0.2667973130539681  0.9958578730317402  0.6946125163282179  1.0000
  O   O40       1.0  0.2451502121143674  0.988016158251682  0.20341683500928437  1.0000
  O   O41       1.0  0.23751055585198888  0.5037089907863966  0.09213184037734846  1.0000
  O   O42       1.0  0.24230503535589806  0.47539635355985077  0.5807252144556386  1.0000
  O   O43       1.0  0.24214633904206329  0.49614520005561613  0.8432236329918937  1.0000
  O   O44       1.0  0.24993770776929486  0.4948196020262027  0.3324936609386777  1.0000
  O   O45       1.0  0.7451477506861198  0.007842673139824263  0.6515757566110836  1.0000
  O   O46       1.0  0.7624643297146897  0.9976940223050847  0.1354466893342886  1.0000
  O   O47       1.0  0.7476332475533193  0.992715469582028  0.3935239231344009  1.0000
  O   O48       1.0  0.7608266457516301  0.02133588295022424  0.8988777258727902  1.0000
  O   O49       1.0  0.736343526240018  0.3740584804486147  0.5961087693611673  1.0000
  O   O50       1.0  0.7640368996682158  0.6384340354864122  0.09241322621725608  1.0000
  O   O51       1.0  0.8821478262810715  0.5052656502642436  0.8157098775079509  1.0000
  O   O52       1.0  0.6162759667372695  0.5128531199517404  0.3252406859098782  1.0000
  O   O53       1.0  0.760281965992842  0.37188631932950045  0.8506803007760229  1.0000
  O   O54       1.0  0.7361878456907895  0.6362854835567818  0.3533090089007966  1.0000
  O   O55       1.0  0.6097864501154484  0.4852584084100284  0.5706644850423731  1.0000
  O   O56       1.0  0.8808603971639091  0.532600998184911  0.08581027864712551  1.0000
  O   O57       1.0  0.23370748737264432  0.8679829368436237  0.16569511703614004  1.0000
  O   O58       1.0  0.2726633721566191  0.1243541065593193  0.6743481357421531  1.0000
  O   O59       1.0  0.3985427578666062  0.965189245113918  0.44193653390103604  1.0000
  O   O60       1.0  0.1216351451519106  0.031422979984732154  0.9505475062212467  1.0000
  O   O61       1.0  0.2585590473730217  0.8486014870003946  0.433198623234297  1.0000
  O   O62       1.0  0.24504973345120942  0.13344404562759163  0.9384125847071687  1.0000
  O   O63       1.0  0.12508604533754192  0.9974188386679244  0.20844947030326366  1.0000
  O   O64       1.0  0.3921935209769008  0.9985060067862948  0.7078284407554392  1.0000
  O   O65       1.0  0.26153248986221755  0.6257349859629067  0.3642741020068578  1.0000
  O   O66       1.0  0.23351270704362798  0.36534968599739004  0.867130101495968  1.0000
  O   O67       1.0  0.11047324320881781  0.5085946174137863  0.08870369257231485  1.0000
  O   O68       1.0  0.3746491121910195  0.47569257879612814  0.581808178040356  1.0000
  O   O69       1.0  0.24613579648831918  0.6313428875248042  0.1087054954239985  1.0000
  O   O70       1.0  0.25891204558527303  0.3461691582991671  0.6083467282921305  1.0000
  O   O71       1.0  0.3716841845898506  0.4937558082381752  0.323484421223402  1.0000
  O   O72       1.0  0.10798166757929796  0.4947985867427301  0.8416576565896544  1.0000
  O   O73       1.0  0.7711866766097744  0.1469608476370587  0.8637754975386739  1.0000
  O   O74       1.0  0.7309935732724472  0.8709416607283698  0.37053370612241626  1.0000
  O   O75       1.0  0.6200538011025156  0.010984273179551765  0.6548105886820849  1.0000
  O   O76       1.0  0.8903714635277029  0.9988965794270155  0.15918454008298283  1.0000
  O   O77       1.0  0.7513651626188826  0.13826594482847274  0.6127883301418352  1.0000
  O   O78       1.0  0.7610220074044624  0.8798639703403718  0.11212423672051787  1.0000
  O   O79       1.0  0.8909973471146522  0.023551858070493054  0.8940344947926989  1.0000
  O   O80       1.0  0.6199581709658248  0.9809164615956344  0.39437115132513617  1.0000
