data_image0
_chemical_formula_structural       Al16H96C128N16O80
_chemical_formula_sum              "Al16 H96 C128 N16 O80"
_cell_length_a       21.6116
_cell_length_b       21.61518
_cell_length_c       10.18042
_cell_angle_alpha    89.73663999999998
_cell_angle_beta     89.71647
_cell_angle_gamma    90.60553000000002

_space_group_name_H-M_alt    "P 1"
_space_group_IT_number       1

loop_
  _space_group_symop_operation_xyz
  'x, y, z'

loop_
  _atom_site_type_symbol
  _atom_site_label
  _atom_site_symmetry_multiplicity
  _atom_site_fract_x
  _atom_site_fract_y
  _atom_site_fract_z
  _atom_site_occupancy
  Al  Al1       1.0  0.7450268674363022  0.4256147127921209  0.7417456169901274  1.0000
  Al  Al2       1.0  0.7513772346819837  0.5701190887383143  0.2409866097761326  1.0000
  Al  Al3       1.0  0.8105466426730925  0.5056564908948084  0.9736304543544471  1.0000
  Al  Al4       1.0  0.6783374075894544  0.49284245431990814  0.482240119408353  1.0000
  Al  Al5       1.0  0.25475042593930736  0.9246522844621451  0.2967417076944119  1.0000
  Al  Al6       1.0  0.2601877287029648  0.07065205371497148  0.7918852208739806  1.0000
  Al  Al7       1.0  0.3246452962452532  0.988004747441095  0.5556340543563785  1.0000
  Al  Al8       1.0  0.18788190194845084  0.009234498544557379  0.05978027593594404  1.0000
  Al  Al9       1.0  0.25017688322592774  0.5718787627819519  0.2181952349201625  1.0000
  Al  Al10      1.0  0.23981374568271602  0.4259547135696911  0.7192996837823579  1.0000
  Al  Al11      1.0  0.17976943206665535  0.5096785649398634  0.9500270325716446  1.0000
  Al  Al12      1.0  0.3175490049930799  0.48935228104791767  0.45710235897869234  1.0000
  Al  Al13      1.0  0.7592744118120865  0.07651107693434751  0.7653720002200077  1.0000
  Al  Al14      1.0  0.752333129278966  0.9274151705077927  0.26767540876603413  1.0000
  Al  Al15      1.0  0.6861787836455959  0.9977166662708462  0.5288132007961341  1.0000
  Al  Al16      1.0  0.8216796996320171  0.005388901752600095  0.024828127559799407  1.0000
  H   H1        1.0  0.6495094706619363  0.28511944713179366  0.09252183524194128  1.0000
  H   H2        1.0  0.8518695165360415  0.7283835633156748  0.5683254568985878  1.0000
  H   H3        1.0  0.9504531121218421  0.325526975310959  0.3937878240274044  1.0000
  H   H4        1.0  0.5362716055581646  0.5950567781642846  0.8157019925827376  1.0000
  H   H5        1.0  0.8485369035793856  0.2975870465475504  0.4400052439137496  1.0000
  H   H6        1.0  0.5777729791103674  0.698861803834335  0.8762576700982669  1.0000
  H   H7        1.0  0.5170336869427667  0.399063024659235  0.16415852320310279  1.0000
  H   H8        1.0  0.9733418827870909  0.5850682625875216  0.6621634057046079  1.0000
  H   H9        1.0  0.1724939934949872  0.8295484251997519  0.6196945914434318  1.0000
  H   H10       1.0  0.3579219545563475  0.18934347000595658  0.09378705975212605  1.0000
  H   H11       1.0  0.4705693757974795  0.8951889779047211  0.8431610525987833  1.0000
  H   H12       1.0  0.06883462530137557  0.11074355504765018  0.3863414743265493  1.0000
  H   H13       1.0  0.373921732289858  0.7474806900492963  0.9201276887123204  1.0000
  H   H14       1.0  0.07268817463347582  0.2362263521954466  0.3652793233919781  1.0000
  H   H15       1.0  0.03207175156573487  0.8687345445918077  0.6770756469902344  1.0000
  H   H16       1.0  0.4663597901803147  0.15787924364202424  0.13773511329129243  1.0000
  H   H17       1.0  0.34257500707985117  0.6784831257133735  0.925140120051922  1.0000
  H   H18       1.0  0.1315165347950623  0.27546559048664054  0.4295952035710558  1.0000
  H   H19       1.0  0.04809050825106421  0.562663337112499  0.6500966754834558  1.0000
  H   H20       1.0  0.4375105816336497  0.38749591874571054  0.1504087283380782  1.0000
  H   H21       1.0  0.17027708765595134  0.7601780505500186  0.5694944022185559  1.0000
  H   H22       1.0  0.3315059733071786  0.26110462289762765  0.070730197588026  1.0000
  H   H23       1.0  0.4728905274547399  0.6371997715226878  0.8321819852874043  1.0000
  H   H24       1.0  0.02694527043660101  0.34023279630487435  0.36882043279471555  1.0000
  H   H25       1.0  0.8453796777976932  0.22032034633539108  0.42551804597055504  1.0000
  H   H26       1.0  0.5935632156645032  0.7784615023069431  0.8836781676175139  1.0000
  H   H27       1.0  0.5411622054108199  0.17909231249858162  0.12715971446590538  1.0000
  H   H28       1.0  0.9573303628820135  0.8575703435339342  0.6715703513425211  1.0000
  H   H29       1.0  0.6755034542718682  0.216767010884401  0.07710245191206534  1.0000
  H   H30       1.0  0.8464941281229359  0.8041868689835396  0.5567834685977345  1.0000
  H   H31       1.0  0.999046071295017  0.08484122981724837  0.33838913219425515  1.0000
  H   H32       1.0  0.5440921105725244  0.926336354629855  0.8578493323428766  1.0000
  H   H33       1.0  0.7387362249756878  0.25101676548080104  0.6105155326194016  1.0000
  H   H34       1.0  0.7701043691204861  0.7492050259789996  0.09959982327964564  1.0000
  H   H35       1.0  0.9943387248523444  0.47433561868027796  0.8560516676242532  1.0000
  H   H36       1.0  0.4932747491372587  0.5200328879371572  0.3421359608380226  1.0000
  H   H37       1.0  0.7765493353933937  0.2518465531620098  0.8938297991086729  1.0000
  H   H38       1.0  0.7315307423464184  0.7417174180209816  0.40452832004358147  1.0000
  H   H39       1.0  0.4987889700196658  0.46904694235608624  0.6193720197128615  1.0000
  H   H40       1.0  0.9918364657008503  0.5385269848894347  0.09215697842657444  1.0000
  H   H41       1.0  0.2295941999727651  0.7482516194516902  0.12262457993786857  1.0000
  H   H42       1.0  0.26804839191601854  0.24042590019262988  0.6039249915031698  1.0000
  H   H43       1.0  0.5118847919270644  0.9650291098668241  0.4109655525559781  1.0000
  H   H44       1.0  0.008094324756677596  0.034013322980545366  0.8908817073969936  1.0000
  H   H45       1.0  0.27252427102187193  0.7466237832253868  0.3858513751940294  1.0000
  H   H46       1.0  0.2253129932654086  0.25237936620164975  0.8993866969603618  1.0000
  H   H47       1.0  0.013423715934393732  0.9891015805979477  0.1783682458442338  1.0000
  H   H48       1.0  0.513166493571217  0.012032720095860714  0.6765248210654361  1.0000
  H   H49       1.0  0.6616495388779932  0.3438218618252015  0.2836633495250098  1.0000
  H   H50       1.0  0.8174783848761082  0.6654698572156694  0.7385174517918587  1.0000
  H   H51       1.0  0.8887337680798263  0.40185434492367883  0.5312217168693574  1.0000
  H   H52       1.0  0.601855182900951  0.5995602269035345  0.022185605923577042  1.0000
  H   H53       1.0  0.8244309813308445  0.3595159376627068  0.24049928957141006  1.0000
  H   H54       1.0  0.6465335910895225  0.6410401372388129  0.7156432965176021  1.0000
  H   H55       1.0  0.5859568431170948  0.41774799116431555  0.9750872510154758  1.0000
  H   H56       1.0  0.9043406658737738  0.5756202539495313  0.47086053974212816  1.0000
  H   H57       1.0  0.18164353745364156  0.8709120741201073  0.8082971470378706  1.0000
  H   H58       1.0  0.34273649616477475  0.1306014367051688  0.2881997846187602  1.0000
  H   H59       1.0  0.4041445874754823  0.9192122167976683  0.05806304607779243  1.0000
  H   H60       1.0  0.11697074642874403  0.09535026254142535  0.5668192888377644  1.0000
  H   H61       1.0  0.3509217524380135  0.8246611878648161  0.7328952712386925  1.0000
  H   H62       1.0  0.15244944759463017  0.1727022174560718  0.2515092404069837  1.0000
  H   H63       1.0  0.09662164980370029  0.904071819675386  0.5016845777898644  1.0000
  H   H64       1.0  0.4129109768235335  0.1000385719053443  0.9950882572215448  1.0000
  H   H65       1.0  0.32245848704220276  0.623087391748657  0.7091547859603579  1.0000
  H   H66       1.0  0.13461811884153907  0.36277860325481703  0.19303183546807812  1.0000
  H   H67       1.0  0.10386224942039418  0.5676082196782966  0.4394114718159936  1.0000
  H   H68       1.0  0.38822079366997875  0.41747607559959915  0.9642386715053209  1.0000
  H   H69       1.0  0.17141102582984932  0.6713719114067151  0.7509341216146874  1.0000
  H   H70       1.0  0.3208828770809092  0.32765583397647446  0.24114238100704022  1.0000
  H   H71       1.0  0.40241058759083476  0.5992106653634871  0.01569771912707922  1.0000
  H   H72       1.0  0.08707823796041728  0.3984202767189387  0.5129566004751193  1.0000
  H   H73       1.0  0.8457538771854802  0.16309630431356226  0.2362868367915869  1.0000
  H   H74       1.0  0.6427400563433235  0.8398584215567145  0.7144842852014565  1.0000
  H   H75       1.0  0.6123691351118066  0.10986435285067284  0.9683256363928942  1.0000
  H   H76       1.0  0.9004378501723377  0.9184495214691466  0.5042855815178929  1.0000
  H   H77       1.0  0.6674522310046911  0.14357763210711275  0.2765607597740913  1.0000
  H   H78       1.0  0.8398279168970705  0.8602036202546656  0.774326378458621  1.0000
  H   H79       1.0  0.9125965234672615  0.07186175204392592  0.5457798123430464  1.0000
  H   H80       1.0  0.6047089179110362  0.9180789521028255  0.060236385685954234  1.0000
  H   H81       1.0  0.2827314932376351  0.4975597718933421  0.8634999760320818  1.0000
  H   H82       1.0  0.24414812785333176  0.520030060033042  0.6301950947757458  1.0000
  H   H83       1.0  0.21152467008563783  0.4916905573830979  0.3698151632116934  1.0000
  H   H84       1.0  0.2500941352726794  0.473487413933666  0.11932272944060454  1.0000
  H   H85       1.0  0.7428750979351335  0.4754978877178632  0.1491798744820547  1.0000
  H   H86       1.0  0.7771297604373657  0.47070236373709895  0.3723080913041475  1.0000
  H   H87       1.0  0.7583905659689106  0.5227576216392851  0.6403891744135656  1.0000
  H   H88       1.0  0.7102781292060132  0.5070649766388619  0.904289452497057  1.0000
  H   H89       1.0  0.2868862371238601  0.0014830650575311584  0.9581305498971767  1.0000
  H   H90       1.0  0.2631016656388789  0.03404666473181977  0.22422028338450462  1.0000
  H   H91       1.0  0.22419060267303664  0.0032395545213739618  0.46140366279319905  1.0000
  H   H92       1.0  0.2569415478697097  0.9654303086456295  0.7353151584212057  1.0000
  H   H93       1.0  0.7907166464813413  0.007080246928690359  0.5986999324039104  1.0000
  H   H94       1.0  0.7196100015500894  0.003025597729292718  0.11109537234736191  1.0000
  H   H95       1.0  0.7598831716377341  0.9818607326593926  0.8433163935821208  1.0000
  H   H96       1.0  0.7526956767876913  0.03019109876437609  0.3615748633285402  1.0000
  C   C1        1.0  0.7019686553455701  0.3605128373982479  0.5159582452393445  1.0000
  C   C2        1.0  0.7952939718048175  0.6412729729039403  0.002205949034137922  1.0000
  C   C3        1.0  0.8788497701868889  0.450248349800699  0.767023845392953  1.0000
  C   C4        1.0  0.6107294012747561  0.5407584587084547  0.261202070820581  1.0000
  C   C5        1.0  0.7895169328015786  0.36986636401977013  0.9772345626102601  1.0000
  C   C6        1.0  0.6988062133892433  0.6284245023073384  0.47456561374330847  1.0000
  C   C7        1.0  0.6122988309279106  0.45417268993963167  0.7292999427837461  1.0000
  C   C8        1.0  0.8833695603291509  0.5531978687035571  0.21290458664170459  1.0000
  C   C9        1.0  0.21533717620579884  0.8715848622993139  0.056855089680220475  1.0000
  C   C10       1.0  0.3000654548447992  0.12121835286113454  0.547681990876038  1.0000
  C   C11       1.0  0.39009005116334466  0.9486479212780605  0.32307275091845045  1.0000
  C   C12       1.0  0.12405089723822703  0.054357067560017805  0.8162568420099247  1.0000
  C   C13       1.0  0.2995219183023748  0.8545618424162328  0.5129547016884696  1.0000
  C   C14       1.0  0.21010204167696767  0.144229729525716  0.02331920790007813  1.0000
  C   C15       1.0  0.12130975776690796  0.9603154633419518  0.2821407554371005  1.0000
  C   C16       1.0  0.3918901844036628  0.03968464495160647  0.7851501185388677  1.0000
  C   C17       1.0  0.29258716501771703  0.6208463608373832  0.4598658911819967  1.0000
  C   C18       1.0  0.19607765281329237  0.3745280319954151  0.9661774259932548  1.0000
  C   C19       1.0  0.11337764383561  0.5479298340696851  0.184452956287234  1.0000
  C   C20       1.0  0.3754422143289084  0.44726454104206465  0.7047965155994574  1.0000
  C   C21       1.0  0.21123449512648493  0.6391773077285657  0.9873740893892508  1.0000
  C   C22       1.0  0.28169239037205857  0.3527741874596053  0.487236637481671  1.0000
  C   C23       1.0  0.38204833374882485  0.5419391480394128  0.23842801883195103  1.0000
  C   C24       1.0  0.11320223974300049  0.45525479222898835  0.7341413634842227  1.0000
  C   C25       1.0  0.7997235513794418  0.1414300607102109  0.9952457406020285  1.0000
  C   C26       1.0  0.7093278445431097  0.85984339676311  0.4987790403132879  1.0000
  C   C27       1.0  0.6227183942837282  0.05088671098256523  0.7405585698386117  1.0000
  C   C28       1.0  0.8861738545547599  0.9597234182306138  0.26119272619699124  1.0000
  C   C29       1.0  0.7173723539734916  0.12944587580315003  0.5179536548844491  1.0000
  C   C30       1.0  0.8000236369695981  0.8709449183583203  0.020124492170128575  1.0000
  C   C31       1.0  0.8917990529571472  0.05140552653053566  0.7898240521117106  1.0000
  C   C32       1.0  0.6182491857426873  0.9541075252001207  0.2966049115600968  1.0000
  C   C33       1.0  0.7167687602678993  0.24653875800357883  0.5143947471809839  1.0000
  C   C34       1.0  0.7850249915907344  0.7573437733584525  0.0005658816428432269  1.0000
  C   C35       1.0  0.9965223666318146  0.45376623313165776  0.7592663707079476  1.0000
  C   C36       1.0  0.4978122433213653  0.540047116679836  0.24221647441925523  1.0000
  C   C37       1.0  0.7963352478578318  0.2552021152473187  0.9929661504724128  1.0000
  C   C38       1.0  0.7062864195906232  0.7444303391685113  0.49281288370409976  1.0000
  C   C39       1.0  0.49443350551837467  0.45876095450177523  0.72610369448968  1.0000
  C   C40       1.0  0.9966277117831396  0.5504302415798213  0.19677727513909712  1.0000
  C   C41       1.0  0.21566053230934665  0.7546306598673591  0.01936868864109306  1.0000
  C   C42       1.0  0.2808517072059818  0.2353523825136535  0.4999957323082092  1.0000
  C   C43       1.0  0.5042580827121778  0.9570131694069611  0.3026663925635246  1.0000
  C   C44       1.0  0.009216444466148443  0.050506399775789024  0.7954026676426746  1.0000
  C   C45       1.0  0.28710798283530287  0.736495805962343  0.48589802727410925  1.0000
  C   C46       1.0  0.201026117508805  0.2597713633153759  0.9929052193616535  1.0000
  C   C47       1.0  0.007259017526683786  0.9706358814600308  0.27450683253028046  1.0000
  C   C48       1.0  0.5119214973011331  0.04244143193951782  0.7630248838148287  1.0000
  C   C49       1.0  0.6990368937485546  0.30128922085765325  0.4451896750689668  1.0000
  C   C50       1.0  0.7965083473940082  0.7042773707678776  0.9336155885417335  1.0000
  C   C51       1.0  0.9387060008982047  0.438075807301966  0.6980607521761834  1.0000
  C   C52       1.0  0.5560862202996059  0.5576477501838301  0.19116794012810304  1.0000
  C   C53       1.0  0.803276959195721  0.3146556397674666  0.05324000912907486  1.0000
  C   C54       1.0  0.6865218385886184  0.6870429546629985  0.5440648249011689  1.0000
  C   C55       1.0  0.5495472920932214  0.44797559594265807  0.796667931444875  1.0000
  C   C56       1.0  0.9443882185271472  0.5569571734702677  0.27249190261186806  1.0000
  C   C57       1.0  0.20531983826969008  0.8157040428529456  0.9763976868833126  1.0000
  C   C58       1.0  0.29613277247708586  0.17596839913447324  0.45057455345903225  1.0000
  C   C59       1.0  0.44914673895680457  0.940712537891781  0.24423409780533115  1.0000
  C   C60       1.0  0.06854025039102972  0.0640724850449481  0.7414467540617188  1.0000
  C   C61       1.0  0.3086667587637116  0.7899512845406045  0.5592419110704717  1.0000
  C   C62       1.0  0.1919094187755688  0.20802162554733333  0.06735374039400287  1.0000
  C   C63       1.0  0.0606484166426564  0.9520111800720862  0.3443441033489267  1.0000
  C   C64       1.0  0.4577684227890133  0.05354093725569766  0.8355871639624682  1.0000
  C   C65       1.0  0.29793953600887174  0.6783256890970413  0.5424789431638699  1.0000
  C   C66       1.0  0.17995507752192888  0.3189751014509166  0.03423698180736632  1.0000
  C   C67       1.0  0.05431196880214286  0.5548846476316375  0.2581098078632744  1.0000
  C   C68       1.0  0.43708261725817493  0.4478999820470421  0.7845964498367468  1.0000
  C   C69       1.0  0.20387999814497174  0.7046398198881901  0.9360868873619472  1.0000
  C   C70       1.0  0.2882989057285257  0.28986913541365594  0.4285601251656462  1.0000
  C   C71       1.0  0.44343519075541304  0.553315219472428  0.17466757549569234  1.0000
  C   C72       1.0  0.04866527361145031  0.44035637294788166  0.6904209826174548  1.0000
  C   C73       1.0  0.8118543462790155  0.20148323605369625  0.055171893408095966  1.0000
  C   C74       1.0  0.6890923559939968  0.7979322438638552  0.5580173312034359  1.0000
  C   C75       1.0  0.5661039600129488  0.06161257192565378  0.8159972858315366  1.0000
  C   C76       1.0  0.9479593889527211  0.952237824177237  0.3306020617808635  1.0000
  C   C77       1.0  0.7026410035369604  0.18792240764456852  0.4522114774890858  1.0000
  C   C78       1.0  0.8055833755794081  0.813174137640322  0.9455470068844566  1.0000
  C   C79       1.0  0.9545452269147031  0.06106494569793061  0.7293422524260524  1.0000
  C   C80       1.0  0.5591407586318837  0.9447498467261424  0.23183004464868423  1.0000
  C   C81       1.0  0.671979979832534  0.2982737201449737  0.3227337286032846  1.0000
  C   C82       1.0  0.8141792231265749  0.7083347985849373  0.7988711251264249  1.0000
  C   C83       1.0  0.9344024103169546  0.4074314533451287  0.575988177905879  1.0000
  C   C84       1.0  0.5558001778975085  0.5857741113815846  0.06515713107195281  1.0000
  C   C85       1.0  0.8245059364265105  0.31805174998968705  0.18081111689122242  1.0000
  C   C86       1.0  0.655821912332739  0.6824219752363617  0.6632402289296008  1.0000
  C   C87       1.0  0.5440509759615085  0.42589465578779584  0.926239409469086  1.0000
  C   C88       1.0  0.9473766586155428  0.5618489441611582  0.41228750294896155  1.0000
  C   C89       1.0  0.18630073639167274  0.8223927404285537  0.8464351953490066  1.0000
  C   C90       1.0  0.3232254995443854  0.17231957161148526  0.32186556169748143  1.0000
  C   C91       1.0  0.4508124902910186  0.928149846188255  0.10701214707736537  1.0000
  C   C92       1.0  0.07006652338370561  0.08698049368086087  0.6096946821409817  1.0000
  C   C93       1.0  0.33388445881176265  0.781954816732094  0.6834394672831434  1.0000
  C   C94       1.0  0.15919682489269213  0.21293576536106243  0.19483652166987397  1.0000
  C   C95       1.0  0.0543064753346982  0.9250322116861617  0.46996958739652794  1.0000
  C   C96       1.0  0.4574596439926897  0.08779860106757732  0.9511954128933783  1.0000
  C   C97       1.0  0.3175149431175147  0.6696391922925331  0.6694392349342314  1.0000
  C   C98       1.0  0.14752944747928626  0.32011682004002284  0.1529938571095385  1.0000
  C   C99       1.0  0.05775166624395616  0.5611580655703018  0.3969739290876654  1.0000
  C   C100      1.0  0.4311877181797691  0.42746997213211263  0.916427180443343  1.0000
  C   C101      1.0  0.18047131117154205  0.7129797318326181  0.8106724868977941  1.0000
  C   C102      1.0  0.3101140430031561  0.28574486477625083  0.3025495656137945  1.0000
  C   C103      1.0  0.4451030643522177  0.5821214786771239  0.053530565725403635  1.0000
  C   C104      1.0  0.045647138332224474  0.40956554161197356  0.5695539669494756  1.0000
  C   C105      1.0  0.8329000437009915  0.20730911450664716  0.18353353589409296  1.0000
  C   C106      1.0  0.6549849317112135  0.7957522747874568  0.6714886111803453  1.0000
  C   C107      1.0  0.5675138684465446  0.10094484857510534  0.9282650110989121  1.0000
  C   C108      1.0  0.945388654862732  0.9280870399495301  0.4611514493102104  1.0000
  C   C109      1.0  0.6740099065524716  0.1892500929672475  0.3246676511556105  1.0000
  C   C110      1.0  0.8283763465997809  0.8162696996941085  0.8160606216136453  1.0000
  C   C111      1.0  0.9571607736919431  0.0775301559709405  0.5970480007885309  1.0000
  C   C112      1.0  0.5608264951602845  0.9232911764667272  0.10469762536365658  1.0000
  C   C113      1.0  0.6665026789703463  0.2441329709498123  0.25405822347107154  1.0000
  C   C114      1.0  0.8330362202792656  0.7627698115670676  0.7430843077463211  1.0000
  C   C115      1.0  0.9893337673084792  0.39335359595042996  0.5078105301146492  1.0000
  C   C116      1.0  0.5032961895228796  0.5978525436663482  0.9983812455802209  1.0000
  C   C117      1.0  0.8386727924319987  0.26329520449507715  0.2458511056950206  1.0000
  C   C118      1.0  0.6346892322826356  0.7373484828764643  0.7200454305200225  1.0000
  C   C119      1.0  0.48590789137544527  0.41134806753950504  0.9784949934945522  1.0000
  C   C120      1.0  0.004991687499545483  0.5648302053281116  0.4745444883911669  1.0000
  C   C121      1.0  0.17179831246972496  0.7766141710787648  0.7635465049667953  1.0000
  C   C122      1.0  0.3316084693498811  0.22821389474123988  0.25458477871788643  1.0000
  C   C123      1.0  0.506280102134986  0.9182980677793778  0.037233233742462124  1.0000
  C   C124      1.0  0.014750746512298959  0.09109571144162763  0.537471897777295  1.0000
  C   C125      1.0  0.336621238733858  0.721238631148073  0.7463667902268374  1.0000
  C   C126      1.0  0.1372470049006533  0.26845383264494677  0.23311247513246292  1.0000
  C   C127      1.0  0.9961010837222636  0.9174081371500599  0.5394377323223216  1.0000
  C   C128      1.0  0.5124545566040869  0.11286966613475397  0.9974015726703773  1.0000
  N   N1        1.0  0.6435242149718707  0.24101520387473602  0.12564511433855252  1.0000
  N   N2        1.0  0.859588224205141  0.7678471466434179  0.6185771265221912  1.0000
  N   N3        1.0  0.9865873627110511  0.35949915400937477  0.39336611755938994  1.0000
  N   N4        1.0  0.5148101365933968  0.6295066166238392  0.8712088897151127  1.0000
  N   N5        1.0  0.8588878327115339  0.2599938188595612  0.37991321611049633  1.0000
  N   N6        1.0  0.598710350143974  0.7385998330708907  0.8362902287659795  1.0000
  N   N7        1.0  0.4798654754338263  0.38306015151584893  0.10674734541490614  1.0000
  N   N8        1.0  0.011699433643945323  0.582782725777616  0.6033443124872837  1.0000
  N   N9        1.0  0.15360274771136712  0.7896054861155297  0.6398686593318357  1.0000
  N   N10       1.0  0.35828322138278657  0.23286866074472307  0.12641403256006647  1.0000
  N   N11       1.0  0.5086933577488737  0.9053529218249788  0.9020201293710952  1.0000
  N   N12       1.0  0.021702468066792546  0.10999982875147613  0.41219001061776583  1.0000
  N   N13       1.0  0.364754116180182  0.7107371646845606  0.8666900554797121  1.0000
  N   N14       1.0  0.09877155878556435  0.27582517686718006  0.3556291984877434  1.0000
  N   N15       1.0  0.9919463335523574  0.8878654735034959  0.6620885151230366  1.0000
  N   N16       1.0  0.5105698978036456  0.14676479127415132  0.11179640084216906  1.0000
  O   O1        1.0  0.8327157015756481  0.41736569294604764  0.732168253040223  1.0000
  O   O2        1.0  0.6621644196357171  0.5654221079769326  0.23100914505524495  1.0000
  O   O3        1.0  0.8253008144691112  0.5982567195031024  0.9408367370379662  1.0000
  O   O4        1.0  0.6743068640680855  0.4068145753615631  0.45960487825213353  1.0000
  O   O5        1.0  0.6574917724660386  0.42543210575564505  0.7845503642317495  1.0000
  O   O6        1.0  0.8384683785534133  0.5729079676649251  0.28442337694571324  1.0000
  O   O7        1.0  0.6672379221066514  0.5791765844662297  0.5225542037422154  1.0000
  O   O8        1.0  0.8109490986383614  0.4203846022661632  0.020550915644605545  1.0000
  O   O9        1.0  0.34229960868369963  0.9264442067000297  0.26541729663439917  1.0000
  O   O10       1.0  0.17467598014327612  0.07720066036919948  0.7688255218263604  1.0000
  O   O11       1.0  0.3354970696104649  0.0743973837490626  0.5082301452651379  1.0000
  O   O12       1.0  0.18829092452947843  0.9198032492762662  0.017215121581927173  1.0000
  O   O13       1.0  0.166544712540959  0.9244007079274144  0.31598836319371915  1.0000
  O   O14       1.0  0.34719179407160955  0.0709797720915579  0.8386025727197282  1.0000
  O   O15       1.0  0.18410673752304382  0.09875949726069319  0.08687251274675777  1.0000
  O   O16       1.0  0.3230428884061408  0.8970270466151585  0.583671926035273  1.0000
  O   O17       1.0  0.16263865935752003  0.5694256877438763  0.24378996050795973  1.0000
  O   O18       1.0  0.3295935740460776  0.4204082276366743  0.7659023628631261  1.0000
  O   O19       1.0  0.17059417576581679  0.42496831784204686  0.9957929508546105  1.0000
  O   O20       1.0  0.3255132421048939  0.573469929511633  0.49205833162575835  1.0000
  O   O21       1.0  0.3365800941240288  0.5748995065354975  0.20103618876266574  1.0000
  O   O22       1.0  0.1555223880825592  0.41916393707065236  0.6826484895418191  1.0000
  O   O23       1.0  0.30844722805636005  0.39846894132807664  0.42278716052064147  1.0000
  O   O24       1.0  0.18715184405301913  0.5965379205170208  0.9219074981567936  1.0000
  O   O25       1.0  0.6708744020049393  0.08472588404615605  0.7659376529868607  1.0000
  O   O26       1.0  0.8397702582344917  0.9287744649022737  0.30472248774429145  1.0000
  O   O27       1.0  0.6824687101727317  0.9047584289233935  0.5510982037313589  1.0000
  O   O28       1.0  0.8225347806761212  0.09461503572151898  0.05177638940955205  1.0000
  O   O29       1.0  0.8458484604240649  0.0785256089551113  0.7333334037337929  1.0000
  O   O30       1.0  0.6615317309165786  0.9263504518103142  0.23992637564009003  1.0000
  O   O31       1.0  0.8234349008394588  0.9219856103110735  0.9653455924141982  1.0000
  O   O32       1.0  0.6821714617582361  0.08186957448069737  0.48836591260047496  1.0000
  O   O33       1.0  0.747611708161149  0.49388866159025835  0.865004302279678  1.0000
  O   O34       1.0  0.7401031581922871  0.49268766759783195  0.35286889117661235  1.0000
  O   O35       1.0  0.7535925673447825  0.5136408476022868  0.10312455478801616  1.0000
  O   O36       1.0  0.7392747969479768  0.48390438195938795  0.6077435349513545  1.0000
  O   O37       1.0  0.2629771872724673  0.9839878084550769  0.42603327431159743  1.0000
  O   O38       1.0  0.24916937527820737  0.016683361422488052  0.927916136310856  1.0000
  O   O39       1.0  0.2679464860156018  0.0011966063949064723  0.6764537791367845  1.0000
  O   O40       1.0  0.2515708384997544  0.9978372319013902  0.17765324609101002  1.0000
  O   O41       1.0  0.24128352433686875  0.515282048303531  0.08358211881891747  1.0000
  O   O42       1.0  0.25516270293118326  0.48362373875528863  0.5872490868445456  1.0000
  O   O43       1.0  0.2408229539299323  0.4965459891416341  0.827682386458199  1.0000
  O   O44       1.0  0.2524300083579837  0.49888432758274637  0.3274203014352181  1.0000
  O   O45       1.0  0.7533758933619312  0.009573731528248997  0.6576950459923376  1.0000
  O   O46       1.0  0.7582438539406878  0.9962456643747972  0.1531125150671916  1.0000
  O   O47       1.0  0.7438569603304495  0.9909073142019975  0.40226866275343637  1.0000
  O   O48       1.0  0.7611985977462595  0.018663542531524836  0.8939055993004033  1.0000
  O   O49       1.0  0.7337601486165694  0.36199574499884307  0.6206823386869522  1.0000
  O   O50       1.0  0.7666402401785284  0.6367746165844814  0.12027077996085044  1.0000
  O   O51       1.0  0.875113879331807  0.4950408062394317  0.8483783387550735  1.0000
  O   O52       1.0  0.6075847773794921  0.5058797819045895  0.3663394219705671  1.0000
  O   O53       1.0  0.7545389057293221  0.36536132970540325  0.88271062138147  1.0000
  O   O54       1.0  0.737124407599717  0.629910327288227  0.37696829722906977  1.0000
  O   O55       1.0  0.6116228180540694  0.47739607851155147  0.6127470912069516  1.0000
  O   O56       1.0  0.8788725604713095  0.5235927268981004  0.10141019601838688  1.0000
  O   O57       1.0  0.24453313504603405  0.8643433500901344  0.1616318599684281  1.0000
  O   O58       1.0  0.2729629673796398  0.12677785251969637  0.6584915442618418  1.0000
  O   O59       1.0  0.3918615669823322  0.9715761894849446  0.44184562985854176  1.0000
  O   O60       1.0  0.11822751095691741  0.02314973408014354  0.9253045708890569  1.0000
  O   O61       1.0  0.2660537378225835  0.862086168026851  0.41562722210847836  1.0000
  O   O62       1.0  0.24667385329012023  0.1405267118982373  0.9261654530551836  1.0000
  O   O63       1.0  0.1203658554045916  0.9976763489005175  0.185322105493425  1.0000
  O   O64       1.0  0.38902805408355173  0.9949612993134551  0.6959664386342257  1.0000
  O   O65       1.0  0.25538452207810614  0.6241686565932513  0.36608948349527676  1.0000
  O   O66       1.0  0.23417408581790147  0.3689519163216735  0.866786581227326  1.0000
  O   O67       1.0  0.11413913552075534  0.5232467241771638  0.07140573342316713  1.0000
  O   O68       1.0  0.37652005958109797  0.4670489836116768  0.5882687146471545  1.0000
  O   O69       1.0  0.2438446374465893  0.6331981711399175  0.08984377495998618  1.0000
  O   O70       1.0  0.25026230419289075  0.35641802135969697  0.5981604491016907  1.0000
  O   O71       1.0  0.3783331006466956  0.5001960696376764  0.3325491206362764  1.0000
  O   O72       1.0  0.12254102487082541  0.5001499538453335  0.8099627601330524  1.0000
  O   O73       1.0  0.7668217976821439  0.14334293847201662  0.895495899424847  1.0000
  O   O74       1.0  0.746685368010928  0.8598810263019067  0.4014294992488855  1.0000
  O   O75       1.0  0.6239887694537866  0.006096616649260812  0.6565711450389556  1.0000
  O   O76       1.0  0.884939532054064  0.9944743343114263  0.15888802092329968  1.0000
  O   O77       1.0  0.7530983101400847  0.13537361968139697  0.6153866698712119  1.0000
  O   O78       1.0  0.7675543621206138  0.8702012357141062  0.12899869277424178  1.0000
  O   O79       1.0  0.8904059469838752  0.023536319235364665  0.9027355957170031  1.0000
  O   O80       1.0  0.620400628363471  0.9799061368928014  0.408669745629259  1.0000
