data_image0
_chemical_formula_structural       Al4H48C68O36Al4H48C68O36
_chemical_formula_sum              "Al8 H96 C136 O72"
_cell_length_a       13.434
_cell_length_b       19.542295463941795
_cell_length_c       19.74216606656929
_cell_angle_alpha    98.80248806554334
_cell_angle_beta     88.63873859148211
_cell_angle_gamma    88.54562844279407

_space_group_name_H-M_alt    "P 1"
_space_group_IT_number       1

loop_
  _space_group_symop_operation_xyz
  'x, y, z'

loop_
  _atom_site_type_symbol
  _atom_site_label
  _atom_site_symmetry_multiplicity
  _atom_site_fract_x
  _atom_site_fract_y
  _atom_site_fract_z
  _atom_site_occupancy
  Al  Al1       1.0  0.4201718287361344  0.7487663060303943  0.7485598400164086  1.0000
  Al  Al2       1.0  0.10745788269625882  0.24417500126617137  0.25394456978771407  1.0000
  Al  Al3       1.0  0.17072325127529345  0.7440341510522324  0.7531170649164188  1.0000
  Al  Al4       1.0  0.35664599364506466  0.2516826968533268  0.2519661060404061  1.0000
  H   H1        1.0  0.15147835207213695  0.6744506755265908  0.9536168085324582  1.0000
  H   H2        1.0  0.39042129197635367  0.3183348517941123  0.05518182750487129  1.0000
  H   H3        1.0  0.40644879614093454  0.8164423964454472  0.5482226951081941  1.0000
  H   H4        1.0  0.08863515933208403  0.07047613927814034  0.35516013742180286  1.0000
  H   H5        1.0  0.13408342578563354  0.6038244851679883  0.047337555122551535  1.0000
  H   H6        1.0  0.41310774255707594  0.38527942271571125  0.9596311147574608  1.0000
  H   H7        1.0  0.38847384020558384  0.8870894202213746  0.4550065634293919  1.0000
  H   H8        1.0  0.10117266079321595  0.9858041764716208  0.4357262332068506  1.0000
  H   H9        1.0  0.40216849668061594  0.9234998008772236  0.08480919905650702  1.0000
  H   H10       1.0  0.20378696430106635  0.045034197861728346  0.9582515126653677  1.0000
  H   H11       1.0  0.08948397990493855  0.550739160291924  0.46466223977028  1.0000
  H   H12       1.0  0.43629219324624385  0.4346248177385111  0.5524856424982053  1.0000
  H   H13       1.0  0.3324784624536712  0.43321910923938917  0.8647071582401805  1.0000
  H   H14       1.0  0.22581207137367895  0.4900003792004867  0.8835851707517177  1.0000
  H   H15       1.0  0.25155539651926173  0.4257225981610403  0.9374059583632448  1.0000
  H   H16       1.0  0.29473505888028784  0.4630968799499847  0.12344385191262434  1.0000
  H   H17       1.0  0.22058997185515344  0.5421538020030033  0.14058855501999795  1.0000
  H   H18       1.0  0.3128239833632828  0.529062651599353  0.07151712644856938  1.0000
  H   H19       1.0  0.09233426579535811  0.11678904287289964  0.5912731514716439  1.0000
  H   H20       1.0  0.22190682739437287  0.09904796133910454  0.5702982770997846  1.0000
  H   H21       1.0  0.17029112714677622  0.08346189051380185  0.6518867808429905  1.0000
  H   H22       1.0  0.7999016017311117  0.8882830976679684  0.4289263665265101  1.0000
  H   H23       1.0  0.4789911822906878  0.9511478073690922  0.36502589478002256  1.0000
  H   H24       1.0  0.8526328171814218  0.9038993063543492  0.3477626397292585  1.0000
  H   H25       1.0  0.31578720173951125  0.6549582473733138  0.8805894267254641  1.0000
  H   H26       1.0  0.2122006744409914  0.383316579161204  0.1820045123577069  1.0000
  H   H27       1.0  0.1854244626276678  0.9141005868924927  0.7248718080196903  1.0000
  H   H28       1.0  0.46647550079783856  0.11834846082167509  0.3303673469387755  1.0000
  H   H29       1.0  0.46620876331683736  0.7965430359270991  0.9311090144600553  1.0000
  H   H30       1.0  0.11949560942469394  0.1902755378320256  0.06911368064813865  1.0000
  H   H31       1.0  0.183857728131069  0.6880352828950279  0.5857436673161727  1.0000
  H   H32       1.0  0.3447004227981754  0.2966501459488268  0.4328316582914573  1.0000
  H   H33       1.0  0.35739053523088476  0.961032495055422  0.8223783201722901  1.0000
  H   H34       1.0  0.33404157049966177  0.987616116841709  0.9122898677058764  1.0000
  H   H35       1.0  0.2828596865899952  0.038233725797123135  0.8518764229309814  1.0000
  H   H36       1.0  0.37540589665038754  0.9276853932209728  0.19849302635627117  1.0000
  H   H37       1.0  0.27399145804885894  0.9740427270747172  0.16620162034663113  1.0000
  H   H38       1.0  0.3057707137308961  0.9937653609531301  0.2548200697364373  1.0000
  H   H39       1.0  0.08791263890932198  0.5137234613256237  0.6828950364065224  1.0000
  H   H40       1.0  0.5780364922378971  0.5134501138231395  0.6951290124089837  1.0000
  H   H41       1.0  0.005295213823239569  0.4438964918422025  0.6566192698184802  1.0000
  H   H42       1.0  0.9551815604571107  0.49602899235392056  0.41110988616552147  1.0000
  H   H43       1.0  0.9503603161375044  0.4740723231960668  0.319673007896626  1.0000
  H   H44       1.0  0.022178030224536044  0.5461256583251378  0.35667167470003075  1.0000
  H   H45       1.0  0.2910384334326093  0.7972444662482798  0.8295105117423854  1.0000
  H   H46       1.0  0.23426180058299742  0.2557261661974063  0.16363921649061633  1.0000
  H   H47       1.0  0.042970176981867295  0.708869471781218  0.6686895190236899  1.0000
  H   H48       1.0  0.4768553837658179  0.2603979102953887  0.3458686801353707  1.0000
  C   C1        1.0  0.29827917600620935  0.6429970322506664  0.6692495128704748  1.0000
  C   C2        1.0  0.22717441855999965  0.34245538169461354  0.34769721054250846  1.0000
  C   C3        1.0  0.04884251196306808  0.853828056821237  0.8345820428673983  1.0000
  C   C4        1.0  0.4916656143192423  0.14883236410852163  0.16743344272382318  1.0000
  C   C5        1.0  0.2950554883561122  0.8223906003340675  0.6632853553481693  1.0000
  C   C6        1.0  0.23310946241819183  0.15492706656916094  0.3211101425494821  1.0000
  C   C7        1.0  0.043370763198402315  0.6695333723620693  0.8405194339042149  1.0000
  C   C8        1.0  0.4852791686587626  0.3305405990143517  0.17315034355450723  1.0000
  C   C9        1.0  0.4343536559931451  0.5270402468066232  0.9289232899189827  1.0000
  C   C10       1.0  0.09402000328761656  0.4624312355802394  0.07630145626089632  1.0000
  C   C11       1.0  0.20239767161417854  0.9635133430580755  0.5629468259665675  1.0000
  C   C12       1.0  0.3446254566015349  0.031718149516112536  0.430787662803815  1.0000
  C   C13       1.0  0.4399830582665563  0.5764248397505755  0.8840700953748334  1.0000
  C   C14       1.0  0.08430407848558696  0.41231621081661457  0.11976581889037022  1.0000
  C   C15       1.0  0.21277373069574285  0.9243400957175185  0.617309199056507  1.0000
  C   C16       1.0  0.3361574766667633  0.08380140135147313  0.38924725669162136  1.0000
  C   C17       1.0  0.03951848538032842  0.62071711334485  0.8922302327966363  1.0000
  C   C18       1.0  0.4941291689539151  0.3777806352795584  0.12000543533996512  1.0000
  C   C19       1.0  0.2863726967152634  0.8701573324741844  0.6105077940724027  1.0000
  C   C20       1.0  0.24288549124106273  0.09781580390419226  0.3624705158445288  1.0000
  C   C21       1.0  0.09861778110314813  0.632853910282706  0.9499129832837658  1.0000
  C   C22       1.0  0.4412298705822737  0.3612068748214656  0.05986206542918675  1.0000
  C   C23       1.0  0.3490226486897357  0.8572701002715357  0.5521594195467131  1.0000
  C   C24       1.0  0.15963342199088595  0.060460996372114446  0.3776331658291457  1.0000
  C   C25       1.0  0.08801418071588822  0.5933711172423483  0.002661880832735104  1.0000
  C   C26       1.0  0.4532336544483791  0.39974469697809606  0.006500461491129115  1.0000
  C   C27       1.0  0.33888522173584207  0.8974438605217497  0.49991636755204594  1.0000
  C   C28       1.0  0.16754386864283602  0.012153966017345403  0.42235032304379033  1.0000
  C   C29       1.0  0.018106616000384112  0.5407301945595197  0.9997900728130449  1.0000
  C   C30       1.0  0.008710263523420345  0.49613671036364854  0.054175930673777045  1.0000
  C   C31       1.0  0.266480581059193  0.9512293987980903  0.5040044610809148  1.0000
  C   C32       1.0  0.2593864168139801  0.9975608811536664  0.4508649882063378  1.0000
  C   C33       1.0  0.05029464060559674  0.9180637892218113  0.8860237924315455  1.0000
  C   C34       1.0  0.4921351290925135  0.08732887847828621  0.11135298943698083  1.0000
  C   C35       1.0  0.30071258016356495  0.5830560961911463  0.6118302225412778  1.0000
  C   C36       1.0  0.22351599020864082  0.4012907245606007  0.40629848220695314  1.0000
  C   C37       1.0  0.44055246404503795  0.9694320708386571  0.07550723002768947  1.0000
  C   C38       1.0  0.13817013559743838  0.014185904246071145  0.9498213003794482  1.0000
  C   C39       1.0  0.1477523463536963  0.5108557850667954  0.46104799507742794  1.0000
  C   C40       1.0  0.3773559448368744  0.4740621088254792  0.5564444159573377  1.0000
  C   C41       1.0  0.44261982655354737  0.027527621345415674  0.12534232386421906  1.0000
  C   C42       1.0  0.13770852302821568  0.9590421887418926  0.896747923289919  1.0000
  C   C43       1.0  0.14730092727109875  0.45398814471956966  0.4094866167572557  1.0000
  C   C44       1.0  0.3778592805736531  0.5309271996641433  0.60804804635422  1.0000
  C   C45       1.0  0.05758002209241289  0.08534012315648172  0.053254332888934476  1.0000
  C   C46       1.0  0.4891409232312912  0.9076163766325734  0.9588765767613578  1.0000
  C   C47       1.0  0.29916943571441995  0.4070737461112999  0.4542925853758589  1.0000
  C   C48       1.0  0.22563953363798175  0.5774538347187306  0.5634486206542918  1.0000
  C   C49       1.0  0.05659154225447786  0.02944917682480496  0.9967706389088299  1.0000
  C   C50       1.0  0.4884889453448586  0.9681606491188328  0.010615834273407855  1.0000
  C   C51       1.0  0.30156876969352403  0.4662028750846949  0.5073465285611732  1.0000
  C   C52       1.0  0.22318311891195913  0.5183125548359306  0.5103879602092093  1.0000
  C   C53       1.0  0.28459912518909786  0.46139371631784587  0.9060555840426624  1.0000
  C   C54       1.0  0.2572635926255344  0.5042045264619743  0.1003314531842888  1.0000
  C   C55       1.0  0.15628996494526204  0.08244565210703939  0.5971675212798687  1.0000
  C   C56       1.0  0.5110564830644688  0.9886170696094421  0.4052646908009435  1.0000
  C   C57       1.0  0.34446448642538485  0.6030393564603004  0.8568157112091068  1.0000
  C   C58       1.0  0.17365032470456507  0.36852268083069406  0.13326074248794995  1.0000
  C   C59       1.0  0.15673431995580045  0.9414061392493731  0.6839460568146857  1.0000
  C   C60       1.0  0.4238794824871652  0.12860757553394844  0.3796752127986873  1.0000
  C   C61       1.0  0.4429689629395852  0.8417744047923515  0.969671315762486  1.0000
  C   C62       1.0  0.14216699080335213  0.13476851748379023  0.058568146856732645  1.0000
  C   C63       1.0  0.15328422102105999  0.6368339165595984  0.5664203671418315  1.0000
  C   C64       1.0  0.3739125124026323  0.34867227710784776  0.4505156906983899  1.0000
  C   C65       1.0  0.3026832214992738  0.9856351965958929  0.8611269613372987  1.0000
  C   C66       1.0  0.33527619647021917  0.9779174721973535  0.2023848836016819  1.0000
  C   C67       1.0  0.03420058541047451  0.49294250918299726  0.6446670597887396  1.0000
  C   C68       1.0  0.9973458613395325  0.49409543089765623  0.36245067172597684  1.0000
  O   O1        1.0  0.21561108071950688  0.792474659542678  0.6774185724541073  1.0000
  O   O2        1.0  0.31346186566497425  0.18629646756656804  0.31016044508255564  1.0000
  O   O3        1.0  0.4587885672847388  0.6843748172398118  0.8087707414624141  1.0000
  O   O4        1.0  0.06438413974025109  0.31599894584406424  0.20282940211260383  1.0000
  O   O5        1.0  0.37845969968086113  0.6748528443207193  0.6817812019280074  1.0000
  O   O6        1.0  0.1477958934796598  0.31096004000849653  0.3313982668444262  1.0000
  O   O7        1.0  0.13050649475835654  0.8311450135713416  0.804645677366424  1.0000
  O   O8        1.0  0.4075551970124436  0.17861413603938725  0.1825796841349605  1.0000
  O   O9        1.0  0.38105490048790996  0.8141290935027474  0.6875425084606708  1.0000
  O   O10       1.0  0.1473028721607792  0.16997103756279094  0.3009713875499949  1.0000
  O   O11       1.0  0.12645091507762374  0.6957066419918626  0.8277567428981643  1.0000
  O   O12       1.0  0.39774452308634883  0.3176926569239921  0.1932846887498718  1.0000
  O   O13       1.0  0.4554753092623198  0.8285814464754699  0.8149515947082351  1.0000
  O   O14       1.0  0.06750922078229858  0.1727637840972819  0.18117972515639422  1.0000
  O   O15       1.0  0.21371330806691047  0.6582739594643309  0.6998902676648548  1.0000
  O   O16       1.0  0.3131542245234857  0.32889956090624606  0.31868649369295454  1.0000
  O   O17       1.0  0.29474234192645454  0.7572554200062723  0.7934897446415752  1.0000
  O   O18       1.0  0.23290122584163556  0.24633563097247588  0.21086878268895498  1.0000
  O   O19       1.0  0.04686637771884444  0.7382519724819168  0.7129405189211363  1.0000
  O   O20       1.0  0.4791164990201544  0.25223687035899883  0.295966875192288  1.0000
  O   O21       1.0  0.3422150514873178  0.5094634175469602  0.9523521177315147  1.0000
  O   O22       1.0  0.18609549512700652  0.4762695946901348  0.05019274946159368  1.0000
  O   O23       1.0  0.12842801877780669  0.013878059746239926  0.5663677571531125  1.0000
  O   O24       1.0  0.4354942944392143  0.015919572467041954  0.45653420162034664  1.0000
  O   O25       1.0  0.29857222197696953  0.5673262070088612  0.8123816018869859  1.0000
  O   O26       1.0  0.2061201936711511  0.3206492286937369  0.08987057737667932  1.0000
  O   O27       1.0  0.08595216120411261  0.9828849420964908  0.6968309916931598  1.0000
  O   O28       1.0  0.4492085489733925  0.17264114402134859  0.42678325299969233  1.0000
  O   O29       1.0  0.38414780752926325  0.8337269174748535  0.016355655830171262  1.0000
  O   O30       1.0  0.23017952010286294  0.1172920817000142  0.04767900728130448  1.0000
  O   O31       1.0  0.06636935757065614  0.6333184502601676  0.54806204491847  1.0000
  O   O32       1.0  0.46125478644269774  0.35436405617924815  0.4671292687929443  1.0000
  O   O33       1.0  0.21780302871930907  0.941738142430802  0.8531108604245717  1.0000
  O   O34       1.0  0.40136225722709284  0.03189632265713564  0.18976089631832632  1.0000
  O   O35       1.0  0.4460984171149791  0.54034784480724  0.6577704338016614  1.0000
  O   O36       1.0  0.08054805481697648  0.44554500208865777  0.3584522613065326  1.0000
  Al  Al5       1.0  0.9215326636493946  0.7486541539377594  0.7570506101938264  1.0000
  Al  Al6       1.0  0.6073562304956135  0.24675555055526335  0.25822525894780024  1.0000
  Al  Al7       1.0  0.6711280698869546  0.7431987692352012  0.7551256281407035  1.0000
  Al  Al8       1.0  0.8571357736790096  0.2523889078744606  0.2584181622397703  1.0000
  H   H49       1.0  0.6931039778895112  0.5857650193913205  0.8714279561070659  1.0000
  H   H50       1.0  0.8325743200504846  0.42666640826166125  0.14998943698082248  1.0000
  H   H51       1.0  0.9440876932909478  0.9189472060227173  0.6464224182135165  1.0000
  H   H52       1.0  0.6251960854521036  0.17284413532923937  0.45376566505999383  1.0000
  H   H53       1.0  0.6830218939150939  0.5010113765290541  0.9517083888831915  1.0000
  H   H54       1.0  0.8485616965247273  0.5090904302030468  0.06706250640959902  1.0000
  H   H55       1.0  0.9306757866146865  0.0019278749555580077  0.5641519331350631  1.0000
  H   H56       1.0  0.644156893649778  0.10343022783484015  0.547993385293816  1.0000
  H   H57       1.0  0.8252934595179623  0.9685212274160586  0.029840375346118348  1.0000
  H   H58       1.0  0.6249762563360718  0.0732840614753303  0.9216952620244078  1.0000
  H   H59       1.0  0.5859643033981007  0.5576173531436451  0.4675934775920418  1.0000
  H   H60       1.0  0.9368729135531653  0.4389711613977137  0.5461504973848835  1.0000
  H   H61       1.0  0.862347595130753  0.3750989154727489  0.9121606501897241  1.0000
  H   H62       1.0  0.9872605366840442  0.3929220224247144  0.9382721259358016  1.0000
  H   H63       1.0  0.9481740396580689  0.4076873995094562  0.8547910470720951  1.0000
  H   H64       1.0  0.6535268404890788  0.6296609376715262  0.10847036201415239  1.0000
  H   H65       1.0  0.577895904000436  0.5895911548551983  0.1663160188698595  1.0000
  H   H66       1.0  0.5281120191834111  0.6081266811680037  0.08655927597169522  1.0000
  H   H67       1.0  0.4807700543914865  0.9566609377555175  0.6189749769254435  1.0000
  H   H68       1.0  0.46368066896533267  0.02876190951267224  0.5744306737770485  1.0000
  H   H69       1.0  0.5491019228398885  0.03406796962423308  0.6439660034868219  1.0000
  H   H70       1.0  0.5461086967936454  0.03007138053880695  0.38212870474823096  1.0000
  H   H71       1.0  0.9288681460494561  0.8680634604162062  0.4077075684545175  1.0000
  H   H72       1.0  0.5673102172251742  0.9631797310620444  0.4328857040303559  1.0000
  H   H73       1.0  0.9588072119873753  0.5612798510512077  0.7754160086145011  1.0000
  H   H74       1.0  0.5790385986116188  0.4268525005331358  0.23576679314942056  1.0000
  H   H75       1.0  0.5655046511730137  0.875306034037459  0.6774151881858271  1.0000
  H   H76       1.0  0.8368625172813254  0.06486706267489648  0.27357117218746796  1.0000
  H   H77       1.0  0.8373499847320909  0.9092421815543225  0.8634780022561789  1.0000
  H   H78       1.0  0.5645592606606862  0.1989857560441731  0.07724084709260588  1.0000
  H   H79       1.0  0.6883529362465098  0.6955662669176667  0.5770357912009024  1.0000
  H   H80       1.0  0.8331053321026363  0.3016516412227108  0.4409269818480156  1.0000
  H   H81       1.0  0.7472624721908542  0.03227689916051365  0.8370993744231361  1.0000
  H   H82       1.0  0.6374280516089118  0.06859069639301152  0.804438314019075  1.0000
  H   H83       1.0  0.7150498731957534  0.005980129418885701  0.7493984206748026  1.0000
  H   H84       1.0  0.766873207726982  0.9646770966906016  0.14189016511127064  1.0000
  H   H85       1.0  0.6980634135991539  0.01615557870080483  0.08977171572146447  1.0000
  H   H86       1.0  0.6882820767031228  0.036915102047325656  0.18096949030868628  1.0000
  H   H87       1.0  0.5073083126157617  0.44045215601272664  0.6590871192698184  1.0000
  H   H88       1.0  0.07089714078632511  0.48476218979745533  0.5936434211875705  1.0000
  H   H89       1.0  0.5712847492739254  0.49123902245667306  0.6037763819095477  1.0000
  H   H90       1.0  0.5117344805953472  0.5534423215460543  0.36135734796431135  1.0000
  H   H91       1.0  0.45042101677926044  0.5085288791281701  0.42307619731309615  1.0000
  H   H92       1.0  0.4320914520455639  0.4823141311038385  0.3334960004102143  1.0000
  H   H93       1.0  0.7902965060102745  0.7679223875618796  0.8473970874782074  1.0000
  H   H94       1.0  0.739777777223843  0.21221244138235343  0.1742792534099067  1.0000
  H   H95       1.0  0.5505741771986542  0.7374213664723355  0.6604808224797457  1.0000
  H   H96       1.0  0.985054859478431  0.2754828046469288  0.3448263255050764  1.0000
  C   C69       1.0  0.8037802466730898  0.6484353970425848  0.6652030048200185  1.0000
  C   C70       1.0  0.7204062161303137  0.34886816898428524  0.34729484155471235  1.0000
  C   C71       1.0  0.5390894304378633  0.846760174658371  0.8399841041944416  1.0000
  C   C72       1.0  0.9816610163341204  0.1547500207668908  0.15989103681673675  1.0000
  C   C73       1.0  0.7983926082141929  0.8365278196020299  0.683923033535022  1.0000
  C   C74       1.0  0.7357723628080792  0.1657469363009115  0.3386025535842478  1.0000
  C   C75       1.0  0.5411717669638473  0.6576171442936068  0.8253057122346427  1.0000
  C   C76       1.0  0.9806856251568284  0.34308688693891487  0.1883778586811609  1.0000
  C   C77       1.0  0.9583027038986064  0.5285265958620677  0.9411221413188392  1.0000
  C   C78       1.0  0.570254345987965  0.47281539839862696  0.07250251256281408  1.0000
  C   C79       1.0  0.6861652190477998  0.9593938197690888  0.5741772125935801  1.0000
  C   C80       1.0  0.8256048940603418  0.023366512861487734  0.4380491744436468  1.0000
  C   C81       1.0  0.9693249317812297  0.5671886549194516  0.8866445492769972  1.0000
  C   C82       1.0  0.5600862378575513  0.43381768289310463  0.12714906163470413  1.0000
  C   C83       1.0  0.6951223734129344  0.9080051286818603  0.6164829248282228  1.0000
  C   C84       1.0  0.8150540666608397  0.062069282458146406  0.3834121628550918  1.0000
  C   C85       1.0  0.5339624338592438  0.5999033557825733  0.8661334734898986  1.0000
  C   C86       1.0  0.9892530231447844  0.39928862152444344  0.14580966054763617  1.0000
  C   C87       1.0  0.7890972047553462  0.893341680731038  0.642022766895703  1.0000
  C   C88       1.0  0.7424110943033376  0.11698553578179383  0.39045103066352166  1.0000
  C   C89       1.0  0.6208637439945374  0.5702987152150377  0.8888449902574095  1.0000
  C   C90       1.0  0.905214715079972  0.43598499270345104  0.1282365911188596  1.0000
  C   C91       1.0  0.8725804896155194  0.9293762100965975  0.6248637575633268  1.0000
  C   C92       1.0  0.6814404720626398  0.13118910544444462  0.44958614501076816  1.0000
  C   C93       1.0  0.614660243930545  0.5221648106179243  0.9337069018562199  1.0000
  C   C94       1.0  0.9149087945341401  0.4828152551931714  0.08213408881140397  1.0000
  C   C95       1.0  0.86412614968724  0.9767708473336612  0.5792067480258435  1.0000
  C   C96       1.0  0.6922962787708944  0.09185124550110191  0.5024340580453287  1.0000
  C   C97       1.0  0.5217170441665908  0.5014801824962449  0.9570022561788534  1.0000
  C   C98       1.0  0.5156530808239062  0.45688787183443497  0.01168044303148395  1.0000
  C   C99       1.0  0.7715771010519232  0.9919679744988879  0.551921341400882  1.0000
  C   C100      1.0  0.7635696395348783  0.03734056695690758  0.4980139472874577  1.0000
  C   C101      1.0  0.5379546678235487  0.9085145195948319  0.8956541380371245  1.0000
  C   C102      1.0  0.9770245056559999  0.097498927365941  0.10031412162855093  1.0000
  C   C103      1.0  0.8068988872451242  0.589329199724659  0.6072538713978054  1.0000
  C   C104      1.0  0.7167396964353546  0.4079217927132948  0.40496313198646294  1.0000
  C   C105      1.0  0.88872755313094  0.0018734482838484998  0.035803456055789155  1.0000
  C   C106      1.0  0.5876069424772423  0.026944941906670194  0.9310205619936418  1.0000
  C   C107      1.0  0.6440756214076012  0.5175411715841991  0.46211019382627416  1.0000
  C   C108      1.0  0.8788919170704607  0.47911476753450005  0.5510896831094246  1.0000
  C   C109      1.0  0.8922030579939587  0.05383525148851781  0.09189303661162958  1.0000
  C   C110      1.0  0.5870615861382634  0.9684925389957694  0.8815551225515331  1.0000
  C   C111      1.0  0.6395870553184204  0.46054215403241777  0.4110908111988514  1.0000
  C   C112      1.0  0.883358569121188  0.5363978989407918  0.6018073018151985  1.0000
  C   C113      1.0  0.5393655593653612  0.08860941538283605  0.047703209927186956  1.0000
  C   C114      1.0  0.9664354997703439  0.9348848751920359  0.9293424264178033  1.0000
  C   C115      1.0  0.7943634550573082  0.41309647061755816  0.45145308173520665  1.0000
  C   C116      1.0  0.7289333892691173  0.5840864374323185  0.5611172187467952  1.0000
  C   C117      1.0  0.5394333044824674  0.028177035382078473  0.9958340683006872  1.0000
  C   C118      1.0  0.9689220183257163  0.988605903793987  0.9873839606194237  1.0000
  C   C119      1.0  0.8003593387163508  0.47196515867437433  0.5040808635011793  1.0000
  C   C120      1.0  0.7228153560247939  0.5248496695429125  0.5087805353297098  1.0000
  C   C121      1.0  0.9249780624247409  0.4094052515960268  0.9087989436980822  1.0000
  C   C122      1.0  0.594851913241259  0.5923139932685876  0.11211014254948211  1.0000
  C   C123      1.0  0.5179851802659143  6.660030080705595e-05  0.6006035278432982  1.0000
  C   C124      1.0  0.866492323626821  0.903933186649581  0.4023779612347452  1.0000
  C   C125      1.0  0.9172019233215646  0.5483927730568972  0.8205406112193621  1.0000
  C   C126      1.0  0.6106844353366789  0.4516034498414702  0.19361403958568352  1.0000
  C   C127      1.0  0.6070591261492982  0.8640846117674903  0.6277435647625884  1.0000
  C   C128      1.0  0.8708088783717652  0.04338842678182232  0.31660952722797664  1.0000
  C   C129      1.0  0.8695750897300265  0.8992238180846399  0.9123096605476361  1.0000
  C   C130      1.0  0.584329847463166  0.15464481689481685  0.03671428571428571  1.0000
  C   C131      1.0  0.6558407308805114  0.6437514589685712  0.5648505281509589  1.0000
  C   C132      1.0  0.8670665236104371  0.35322634745099746  0.4480981950569172  1.0000
  C   C133      1.0  0.6854102122628569  0.021761653002724438  0.8018367346938776  1.0000
  C   C134      1.0  0.7386477623026266  0.017054418099330157  0.13756496769562096  1.0000
  C   C135      1.0  0.5304809685612932  0.4927607594542267  0.6529282124910266  1.0000
  C   C136      1.0  0.48581151881933804  0.5030257577636884  0.37169782586401395  1.0000
  O   O37       1.0  0.7169902913094764  0.8063092408790092  0.6949275971695211  1.0000
  O   O38       1.0  0.8190939979917484  0.1855004186449807  0.3173774484668239  1.0000
  O   O39       1.0  0.9594735627348189  0.6827508110846229  0.8153150446108092  1.0000
  O   O40       1.0  0.5667058329406497  0.30484380717456805  0.19123520664547225  1.0000
  O   O41       1.0  0.884002264511093  0.6774720628361601  0.684180032817147  1.0000
  O   O42       1.0  0.6394832749766143  0.32531976018062697  0.3229106245513281  1.0000
  O   O43       1.0  0.6239877233986285  0.8188226833199912  0.8230850169213414  1.0000
  O   O44       1.0  0.8995455658479313  0.18279534868995562  0.18462126961337297  1.0000
  O   O45       1.0  0.8838166260999866  0.8207744466096044  0.7043439647215671  1.0000
  O   O46       1.0  0.649145258026152  0.18522118212260888  0.3225392267459748  1.0000
  O   O47       1.0  0.6276758804805274  0.6784254983486856  0.8120067685365604  1.0000
  O   O48       1.0  0.8948941816248998  0.3247742163049952  0.20568987796123478  1.0000
  O   O49       1.0  0.9655859044250722  0.8232943110068467  0.8259807712029537  1.0000
  O   O50       1.0  0.5752060732818582  0.16484446188807278  0.1942084401599836  1.0000
  O   O51       1.0  0.7168726014797968  0.6658661880927224  0.6907672546405497  1.0000
  O   O52       1.0  0.8081743095995085  0.3256869000856797  0.3272252076710081  1.0000
  O   O53       1.0  0.7944746566382764  0.7517973277547038  0.7982984822069531  1.0000
  O   O54       1.0  0.7333240992062788  0.24426250261843402  0.21701886985950158  1.0000
  O   O55       1.0  0.5485555976969186  0.7427448265979313  0.7103724233411958  1.0000
  O   O56       1.0  0.9817563182989314  0.2512301211142291  0.29806712132089014  1.0000
  O   O57       1.0  0.8882117948823232  0.47802086518184855  0.9376874166752128  1.0000
  O   O58       1.0  0.634936926960668  0.5266092468854493  0.07732012101322941  1.0000
  O   O59       1.0  0.5951850632130959  0.976059829081769  0.5493713978053534  1.0000
  O   O60       1.0  0.8973307138757033  0.9713889868159429  0.4341306019895395  1.0000
  O   O61       1.0  0.8377004285473333  0.5190124780771765  0.8132329504666188  1.0000
  O   O62       1.0  0.6807604109523344  0.49060876530986003  0.20473495026151164  1.0000
  O   O63       1.0  0.5798572886161322  0.8199845712290076  0.5812661778279151  1.0000
  O   O64       1.0  0.9464575766417163  0.006261431937176733  0.30619028817557176  1.0000
  O   O65       1.0  0.823715387259876  0.866768777873094  0.9508127371551637  1.0000
  O   O66       1.0  0.6387678924804657  0.1639204916539356  0.9881014254948209  1.0000
  O   O67       1.0  0.5668987887968997  0.6388835661954828  0.5525446108091477  1.0000
  O   O68       1.0  0.9572178399936699  0.3580020498118129  0.4561269100605066  1.0000
  O   O69       1.0  0.629494521881502  0.963855958377943  0.8172580760947595  1.0000
  O   O70       1.0  0.8186316922479211  0.06512241862192507  0.1416036816736745  1.0000
  O   O71       1.0  0.9555957943174346  0.5450970377542075  0.6491769049328274  1.0000
  O   O72       1.0  0.5665726367854504  0.4523386641039189  0.36439918982668446  1.0000
