data_image0
_chemical_formula_structural       Al16H80C128O80
_chemical_formula_sum              "Al16 H80 C128 O80"
_cell_length_a       21.63717
_cell_length_b       21.63649
_cell_length_c       10.288049999999998
_cell_angle_alpha    90.00093999999999
_cell_angle_beta     89.99906
_cell_angle_gamma    90.00852000000002

_space_group_name_H-M_alt    "P 1"
_space_group_IT_number       1

loop_
  _space_group_symop_operation_xyz
  'x, y, z'

loop_
  _atom_site_type_symbol
  _atom_site_label
  _atom_site_symmetry_multiplicity
  _atom_site_fract_x
  _atom_site_fract_y
  _atom_site_fract_z
  _atom_site_occupancy
  Al  Al1       1.0  0.6814889137417137  0.0010898415744537981  0.01218790247264981  1.0000
  Al  Al2       1.0  0.31923485191388656  0.0002559926712817351  0.9881702654990252  1.0000
  Al  Al3       1.0  0.7635795932404071  0.9340663916619184  0.7863107665861921  1.0000
  Al  Al4       1.0  0.25848310768516675  0.9260743351954669  0.734474907493019  1.0000
  Al  Al5       1.0  0.7500202675025414  0.06588459237514704  0.26865300331392483  1.0000
  Al  Al6       1.0  0.250398620830222  0.07379260982682437  0.2402616045475301  1.0000
  Al  Al7       1.0  0.1863140691215772  0.9995211658569195  0.4965581749092229  1.0000
  Al  Al8       1.0  0.8260368357295418  0.004300857697283889  0.5206368934289295  1.0000
  Al  Al9       1.0  0.25136511747045986  0.5777417234332528  0.7366214843473252  1.0000
  Al  Al10      1.0  0.1760977757250332  0.5072599137994015  0.48785365266991604  1.0000
  Al  Al11      1.0  0.24301686463493288  0.4322691352910784  0.2386183913045395  1.0000
  Al  Al12      1.0  0.751730817061161  0.5709966715462303  0.7529990845772371  1.0000
  Al  Al13      1.0  0.6769737472063384  0.5014293635540652  0.9965649408770845  1.0000
  Al  Al14      1.0  0.7429738494517536  0.43416935204294854  0.24958234754798272  1.0000
  Al  Al15      1.0  0.31457416108557795  0.502823236041417  0.9828639615818892  1.0000
  Al  Al16      1.0  0.820153712062955  0.5019815235252759  0.5047584460998473  1.0000
  H   H1        1.0  0.7138554031736319  0.5064993859347366  0.5890416037665924  1.0000
  H   H2        1.0  0.7410780387646676  0.5369591356600383  0.33918058436138004  1.0000
  H   H3        1.0  0.25588199892404734  0.02951432119401429  0.8018902884628486  1.0000
  H   H4        1.0  0.27086644658664344  0.4859088469262196  0.6057134813377706  1.0000
  H   H5        1.0  0.25768924622389666  0.5268643790481163  0.3231338592731049  1.0000
  H   H6        1.0  0.7458901879688452  0.4737047417229537  0.8278773132218603  1.0000
  H   H7        1.0  0.7690786431437844  0.5093353383568427  0.09648616990266796  1.0000
  H   H8        1.0  0.22510947360262512  0.48466591188759295  0.8196765949105472  1.0000
  H   H9        1.0  0.7569685753730951  0.9716996495637575  0.35178816403244567  1.0000
  H   H10       1.0  0.7775211596343631  0.9901471765818578  0.10706096201869371  1.0000
  H   H11       1.0  0.7679381752149406  0.04056042223938258  0.8616323328896748  1.0000
  H   H12       1.0  0.7281759248042213  1.0099247260691867e-05  0.6111120223649766  1.0000
  H   H13       1.0  0.22189665876868855  0.9992396998501766  0.06716205016363187  1.0000
  H   H14       1.0  0.2914664450527644  0.9906609660691826  0.5498168109138553  1.0000
  H   H15       1.0  0.23729420186002365  0.978729866879  0.28574801743684725  1.0000
  H   H16       1.0  0.21887557608234914  0.5281714122514899  0.07971668782915257  1.0000
  H   H17       1.0  0.6173919848505536  0.8861379815709077  0.563190231536522  1.0000
  H   H18       1.0  0.416191344879578  0.8755322930516374  0.5461777549207296  1.0000
  H   H19       1.0  0.51109369580729  0.9853924617466513  0.8469279204849224  1.0000
  H   H20       1.0  0.5247499185566303  0.8547890340641617  0.46315717762669817  1.0000
  H   H21       1.0  0.594923244962688  0.07012218830924356  0.5137385647836469  1.0000
  H   H22       1.0  0.39285261559978263  0.062078843474348264  0.4784333669961409  1.0000
  H   H23       1.0  0.5117189588972638  0.018316131450349497  0.14666001335588963  1.0000
  H   H24       1.0  0.48551181756301937  0.08095181492644915  0.6057939475097102  1.0000
  H   H25       1.0  0.1116431368327801  0.9093622549635674  0.959983404304793  1.0000
  H   H26       1.0  0.9105922110024565  0.9166590086786567  0.972350217261013  1.0000
  H   H27       1.0  0.011793645390038687  0.9863396618111896  0.6437685734208537  1.0000
  H   H28       1.0  0.008509677336612897  0.890380119241045  0.08587950002554189  1.0000
  H   H29       1.0  0.09749862100870894  0.07758553322371552  0.009689287088109691  1.0000
  H   H30       1.0  0.898434729185484  0.07960569905759966  0.030531583738855603  1.0000
  H   H31       1.0  0.0039103922845298384  0.019559928856054044  0.35405214019957826  1.0000
  H   H32       1.0  0.9914637213928719  0.07920924304528566  0.8902859630799764  1.0000
  H   H33       1.0  0.1664274277588365  0.8588707592689135  0.2687148663492106  1.0000
  H   H34       1.0  0.1622590007677944  0.6582279299085538  0.27444466354264024  1.0000
  H   H35       1.0  0.24124205325673923  0.7597068537038516  0.5878786642393525  1.0000
  H   H36       1.0  0.1481713884296251  0.7568871715523807  0.1439151890201215  1.0000
  H   H37       1.0  0.17345271169854223  0.15042378037560084  0.7242989791073509  1.0000
  H   H38       1.0  0.14800544854676703  0.3496473788837338  0.7133914504668213  1.0000
  H   H39       1.0  0.2267073124435401  0.25589454364226777  0.3873709741955494  1.0000
  H   H40       1.0  0.1349225754937831  0.24985160746275223  0.828663391244632  1.0000
  H   H41       1.0  0.6426931601088779  0.8482367326238651  0.2198375144569348  1.0000
  H   H42       1.0  0.6281355485838662  0.6517666738509829  0.1962839372420872  1.0000
  H   H43       1.0  0.7425186825283354  0.7379799015989454  0.9100683095941139  1.0000
  H   H44       1.0  0.59752239455811  0.7501982444028678  0.2880606276988894  1.0000
  H   H45       1.0  0.6324091206270017  0.15293950911433501  0.8203462660340209  1.0000
  H   H46       1.0  0.6282830644362045  0.3470002312961366  0.8158929838267679  1.0000
  H   H47       1.0  0.74023279068044  0.24759005360844374  0.10268786313094454  1.0000
  H   H48       1.0  0.5910523994703739  0.248711184942092  0.7312467486087857  1.0000
  H   H49       1.0  0.3469199744897816  0.8525541968164674  0.21402929715471708  1.0000
  H   H50       1.0  0.349832582255513  0.6509509185767884  0.19568760849158043  1.0000
  H   H51       1.0  0.27227929512549526  0.7548682821556953  0.8882801359304628  1.0000
  H   H52       1.0  0.3706952862828669  0.7532002724911201  0.3304280374721023  1.0000
  H   H53       1.0  0.32912246196316736  0.14563438515869329  0.7594931704358769  1.0000
  H   H54       1.0  0.33725699191391423  0.35062577186979765  0.771164210140419  1.0000
  H   H55       1.0  0.2673547256122724  0.24815006982564144  0.09442265057629286  1.0000
  H   H56       1.0  0.3500565004695231  0.2488388812026855  0.6514823773021877  1.0000
  H   H57       1.0  0.8301494658173386  0.8517377144926106  0.27896443745630845  1.0000
  H   H58       1.0  0.8116899278326474  0.6533013159111117  0.28680937600362505  1.0000
  H   H59       1.0  0.7776573568232924  0.7576578680350885  0.6350609407767561  1.0000
  H   H60       1.0  0.830748360910554  0.7494966617098373  0.17276928868720018  1.0000
  H   H61       1.0  0.823788597087774  0.1623746274766648  0.7378146988051966  1.0000
  H   H62       1.0  0.8113473845541948  0.36068139758905293  0.7327841167207463  1.0000
  H   H63       1.0  0.7792769219329858  0.2537755915806623  0.3766778768613017  1.0000
  H   H64       1.0  0.8317074132749634  0.25911684563773135  0.8482229569596271  1.0000
  H   H65       1.0  0.09933122968369423  0.41235617772048105  0.032276561650591194  1.0000
  H   H66       1.0  0.8986092977607872  0.41446690897578736  0.01624918133611223  1.0000
  H   H67       1.0  0.9971486932132438  0.5006886367342539  0.33735181408858167  1.0000
  H   H68       1.0  0.9955001878546347  0.38567848564115303  0.9206804353156434  1.0000
  H   H69       1.0  0.09346696481922419  0.58610069254146  0.9815795406046547  1.0000
  H   H70       1.0  0.9027475550704035  0.5691300912972717  0.9831198538811516  1.0000
  H   H71       1.0  0.001814476663783074  0.5332509958133947  0.6289394415599999  1.0000
  H   H72       1.0  0.00795854701878481  0.5912572256187228  0.09829301279369226  1.0000
  H   H73       1.0  0.5846486476998525  0.41014915845307337  0.4849874039631217  1.0000
  H   H74       1.0  0.3898974362254269  0.4146886709689068  0.4728167924251046  1.0000
  H   H75       1.0  0.49058276829084607  0.4838180706389033  0.14352469227865142  1.0000
  H   H76       1.0  0.49174437396100545  0.3862246060826956  0.5798407610388185  1.0000
  H   H77       1.0  0.6091716575572147  0.568929841143539  0.5254304986323715  1.0000
  H   H78       1.0  0.409362224735734  0.574419981729637  0.4820591250367841  1.0000
  H   H79       1.0  0.49571274864401804  0.5130276679948675  0.8437082005176871  1.0000
  H   H80       1.0  0.5143778842648629  0.58690903747422  0.3838539782624291  1.0000
  C   C1        1.0  0.5739181639636702  0.8990491138878318  0.605333551224576  1.0000
  C   C2        1.0  0.5704176418705067  0.9364397210474185  0.7186232728252357  1.0000
  C   C3        1.0  0.6276141966308162  0.9553583637009402  0.791791924824651  1.0000
  C   C4        1.0  0.5118367367350256  0.9518257503219929  0.7654636507520234  1.0000
  C   C5        1.0  0.5183037378336616  0.885490639662303  0.544545132606052  1.0000
  C   C6        1.0  0.46017709771561016  0.8936629276775878  0.5939400393315014  1.0000
  C   C7        1.0  0.45458636972395033  0.9319528403144913  0.708259330189975  1.0000
  C   C8        1.0  0.39235820800530863  0.9449242765257035  0.7601477045800357  1.0000
  C   C9        1.0  0.5528822519725064  0.060793168047376146  0.4567861986736761  1.0000
  C   C10       1.0  0.5600705378427411  0.042218103064114484  0.3251608021831425  1.0000
  C   C11       1.0  0.6170666272953133  0.039168079294431606  0.2504515035107168  1.0000
  C   C12       1.0  0.5074732352459984  0.03099267650560873  0.2470814800359737  1.0000
  C   C13       1.0  0.4931600959807554  0.06763533034714246  0.5096687206429916  1.0000
  C   C14       1.0  0.43860906654792425  0.055556254832904974  0.4337410132338886  1.0000
  C   C15       1.0  0.44504485577099734  0.03910653534370164  0.299129276279587  1.0000
  C   C16       1.0  0.3864397125104405  0.0359540284464472  0.2178714489726649  1.0000
  C   C17       1.0  0.0666594498934064  0.9175842562207658  0.9164664890370322  1.0000
  C   C18       1.0  0.0655928898726191  0.9455559201127867  0.7912566980322575  1.0000
  C   C19       1.0  0.126504421268196  0.9541236956532968  0.7258256804748818  1.0000
  C   C20       1.0  0.010322993928671087  0.9688445556457554  0.7435814748235835  1.0000
  C   C21       1.0  0.010814632619408293  0.909659740511259  0.9851254147022551  1.0000
  C   C22       1.0  0.9563025245897816  0.9285801929010383  0.9284442885260669  1.0000
  C   C23       1.0  0.9529880771003617  0.9540022412789435  0.8094564978048472  1.0000
  C   C24       1.0  0.8932851220234548  0.9656598289874073  0.7466287656132314  1.0000
  C   C25       1.0  0.052515628084018794  0.06638552926770663  0.05548811681063282  1.0000
  C   C26       1.0  0.057289876087625494  0.04859456669879164  0.18727484708166384  1.0000
  C   C27       1.0  0.11606928592487796  0.047459679912025016  0.25976560579694097  1.0000
  C   C28       1.0  0.0018140486384317657  0.03739865429993821  0.2577056653800783  1.0000
  C   C29       1.0  0.9958607335862921  0.07164567129353744  0.9928499569870095  1.0000
  C   C30       1.0  0.9428086608078399  0.06921466023284158  0.07138722305953521  1.0000
  C   C31       1.0  0.9458769890379146  0.05407019262138019  0.19938783739892876  1.0000
  C   C32       1.0  0.8836530428834874  0.044123744055942785  0.2769970539380084  1.0000
  C   C33       1.0  0.1759131423334228  0.8131175383587335  0.3064856207783373  1.0000
  C   C34       1.0  0.1995227792686068  0.8113231084345357  0.4377673515595331  1.0000
  C   C35       1.0  0.21332841086029194  0.867776644436239  0.5055177104893189  1.0000
  C   C36       1.0  0.21519894794565098  0.756746657956418  0.5009218162224048  1.0000
  C   C37       1.0  0.16162588694025845  0.7547747872902186  0.24571286110393223  1.0000
  C   C38       1.0  0.17342325928198857  0.7014942006563786  0.31701371599843725  1.0000
  C   C39       1.0  0.2024145167539051  0.7020130283354898  0.4393742722106234  1.0000
  C   C40       1.0  0.21187476021166987  0.6394843986205851  0.5042789412372809  1.0000
  C   C41       1.0  0.17664039712551305  0.19455293075374655  0.6808075098667838  1.0000
  C   C42       1.0  0.1982185375026122  0.19605477065775437  0.548394147726571  1.0000
  C   C43       1.0  0.2100799428131527  0.13540503219125175  0.48033765400925543  1.0000
  C   C44       1.0  0.2100309493028086  0.2519764226669705  0.48683455867223707  1.0000
  C   C45       1.0  0.15897305625444955  0.252663727162486  0.7409010796070535  1.0000
  C   C46       1.0  0.1634062111634416  0.30572938388947  0.6656969145604005  1.0000
  C   C47       1.0  0.18971318141275006  0.3071934788766405  0.5420680927387439  1.0000
  C   C48       1.0  0.19597858415288652  0.36606510060540093  0.46444816765917024  1.0000
  C   C49       1.0  0.655789694507247  0.8060889546875862  0.16848841232949852  1.0000
  C   C50       1.0  0.6960472921657243  0.8055606420343274  0.05678462683960719  1.0000
  C   C51       1.0  0.7102366573923284  0.8655121397319379  0.001051873073287135  1.0000
  C   C52       1.0  0.7126915307841372  0.7490485021642872  0.9944050060753232  1.0000
  C   C53       1.0  0.633385859289621  0.7512830349184917  0.21339249231786628  1.0000
  C   C54       1.0  0.6491411012383769  0.6955721643530736  0.1533637220294051  1.0000
  C   C55       1.0  0.6886700905382611  0.6938877849361165  0.04547184841888393  1.0000
  C   C56       1.0  0.7013213822982324  0.6339102918500642  0.9814367817727677  1.0000
  C   C57       1.0  0.6525187074016857  0.1942997992273652  0.860008917373178  1.0000
  C   C58       1.0  0.688944872831869  0.19365039508596676  0.9719060602048917  1.0000
  C   C59       1.0  0.7037680318912473  0.13375886425421218  0.04169698048857142  1.0000
  C   C60       1.0  0.7095896827659947  0.2514600958244471  0.02019743100547927  1.0000
  C   C61       1.0  0.6261553516592877  0.24947870978820066  0.8085360833431612  1.0000
  C   C62       1.0  0.6452075000951608  0.3041636711763033  0.8546789335555686  1.0000
  C   C63       1.0  0.6887554685163108  0.30513002943500067  0.9622304530658528  1.0000
  C   C64       1.0  0.7067056529541097  0.3680267090638051  0.013464873327528585  1.0000
  C   C65       1.0  0.33340421295448375  0.8067748388907225  0.17279352748853444  1.0000
  C   C66       1.0  0.3064040209982009  0.8065093957652056  0.046239478825241334  1.0000
  C   C67       1.0  0.2955694082459772  0.8668603432521875  0.9710785982463775  1.0000
  C   C68       1.0  0.29644490451864025  0.7521528020445869  0.9785991293500194  1.0000
  C   C69       1.0  0.3495194201736738  0.7525441719051765  0.23399847596462656  1.0000
  C   C70       1.0  0.3354115744119399  0.699205717536957  0.16388897220112292  1.0000
  C   C71       1.0  0.31106041056363803  0.6975976013699414  0.041473811860831676  1.0000
  C   C72       1.0  0.3053423539436659  0.6377587842098323  0.9618561255692876  1.0000
  C   C73       1.0  0.32314517041793694  0.19173964491581805  0.8102194723240334  1.0000
  C   C74       1.0  0.3042247167089655  0.19130003459178796  0.9399037235046805  1.0000
  C   C75       1.0  0.30022023389942887  0.1363129563044434  0.013529990623826746  1.0000
  C   C76       1.0  0.2886263686838897  0.24959411234765996  0.9942887612311553  1.0000
  C   C77       1.0  0.33232708151381907  0.24788517987915962  0.7486080026897892  1.0000
  C   C78       1.0  0.32662165537563653  0.30497337266600805  0.8118255385858075  1.0000
  C   C79       1.0  0.297431128100397  0.30621566266776074  0.9342757842921398  1.0000
  C   C80       1.0  0.28212908353131133  0.3687627692756965  0.9964541220143937  1.0000
  C   C81       1.0  0.8217319656895792  0.8121076337742679  0.33783041693375887  1.0000
  C   C82       1.0  0.8048592284869164  0.8104255863472771  0.47120237472646687  1.0000
  C   C83       1.0  0.8024781879900709  0.8683564941000663  0.5481299693836653  1.0000
  C   C84       1.0  0.7987961598042284  0.7556529026932464  0.5409513398066439  1.0000
  C   C85       1.0  0.8199762224934277  0.7544818135511202  0.2765652170008633  1.0000
  C   C86       1.0  0.8111818059334521  0.6971038596187803  0.341492584206482  1.0000
  C   C87       1.0  0.8009534824526325  0.697602507740591  0.47431295350559527  1.0000
  C   C88       1.0  0.7941235129842317  0.6389146703455274  0.5410764665313728  1.0000
  C   C89       1.0  0.8168911251511397  0.20489768587170507  0.6813893217749307  1.0000
  C   C90       1.0  0.7989934981403587  0.2010309570135386  0.5538760495461752  1.0000
  C   C91       1.0  0.792748748652768  0.13833293985625675  0.49464312395152904  1.0000
  C   C92       1.0  0.787314236790175  0.25784084199114515  0.4845749244357922  1.0000
  C   C93       1.0  0.8206019414864648  0.2607567669091152  0.7481397604085701  1.0000
  C   C94       1.0  0.809377360124295  0.3168622180860938  0.6820104793316806  1.0000
  C   C95       1.0  0.7945019060527287  0.31359781328378056  0.5540721527922269  1.0000
  C   C96       1.0  0.7885482698569568  0.3705349252132245  0.4798210915896103  1.0000
  C   C97       1.0  0.05482163734926998  0.4240015617608033  0.07886623317522352  1.0000
  C   C98       1.0  0.053709110241483594  0.4557005896933727  0.19923298978442175  1.0000
  C   C99       1.0  0.11448126131702036  0.4689077670175368  0.26362525266983583  1.0000
  C   C100      1.0  0.9949924302913017  0.4750860195797547  0.24583863809766265  1.0000
  C   C101      1.0  0.9990293878854537  0.4107736040501979  0.014624369053464046  1.0000
  C   C102      1.0  0.9419290792290561  0.42680459502327894  0.0689734789577197  1.0000
  C   C103      1.0  0.9394907792482777  0.4566523585588609  0.18789932791153238  1.0000
  C   C104      1.0  0.8810568707802395  0.4612874229072399  0.259019252503356  1.0000
  C   C105      1.0  0.05309135429258102  0.5804297909035335  0.9233007511196349  1.0000
  C   C106      1.0  0.056443920396733405  0.5646181881315353  0.7896715715987362  1.0000
  C   C107      1.0  0.11624029065825775  0.5600904742763343  0.7224497277910061  1.0000
  C   C108      1.0  0.0023715582288395326  0.544579166360673  0.731190496938143  1.0000
  C   C109      1.0  0.0003285673421693378  0.5812296374927292  0.9950738043414524  1.0000
  C   C110      1.0  0.9459835801732296  0.5678869370687983  0.9332641163858989  1.0000
  C   C111      1.0  0.9460219763307856  0.5546413588719301  0.7996612800495757  1.0000
  C   C112      1.0  0.8859963894660026  0.5431879801721273  0.7325787046163563  1.0000
  C   C113      1.0  0.5449355633014916  0.420161736583023  0.4267051249927272  1.0000
  C   C114      1.0  0.548517001956543  0.4460682396106276  0.29988420165437524  1.0000
  C   C115      1.0  0.6098437819509455  0.45784959996905555  0.22743149485370834  1.0000
  C   C116      1.0  0.49376199633943996  0.4596948043518293  0.23493162656192962  1.0000
  C   C117      1.0  0.4869764948771101  0.41051309067489  0.48549575977412646  1.0000
  C   C118      1.0  0.4322542992394943  0.4234549400029658  0.4175328727169902  1.0000
  C   C119      1.0  0.4361094057076026  0.4449639457224367  0.2915090469823831  1.0000
  C   C120      1.0  0.3786725508556139  0.4512666063874489  0.2067915912707022  1.0000
  C   C121      1.0  0.562918880995118  0.5652965317595304  0.563523963390559  1.0000
  C   C122      1.0  0.5580151331919475  0.5413028011988179  0.6932003617711109  1.0000
  C   C123      1.0  0.6146411848901977  0.5382661848278405  0.7734376885941876  1.0000
  C   C124      1.0  0.5002826425904392  0.528581305677829  0.7422779770758462  1.0000
  C   C125      1.0  0.5108936069928033  0.5733319670277435  0.4883463534248078  1.0000
  C   C126      1.0  0.4508250384241333  0.5621460831963115  0.5443366635569534  1.0000
  C   C127      1.0  0.44559689477335807  0.5419400740104543  0.6714931986002378  1.0000
  C   C128      1.0  0.3818396500138492  0.5355276165847576  0.737092040964109  1.0000
  O   O1        1.0  0.751690685040046  0.003831210366588289  0.9034912342476479  1.0000
  O   O2        1.0  0.6243517373250903  0.992462154125359  0.8871430088749812  1.0000
  O   O3        1.0  0.6765580546159369  0.9297437222718731  0.7528790142042964  1.0000
  O   O4        1.0  0.38785747106019497  0.9793492153444957  0.8640591717956597  1.0000
  O   O5        1.0  0.3450212124380351  0.9244288946653832  0.700242118957312  1.0000
  O   O6        1.0  0.7409658613666462  0.0025405647731914656  0.14744881298285334  1.0000
  O   O7        1.0  0.6156856640826911  0.01144336473324268  0.14235392230735058  1.0000
  O   O8        1.0  0.6771999731526832  0.08623468193446901  0.9898737129719123  1.0000
  O   O9        1.0  0.6828289041952111  0.9114087161813776  0.046666694867269015  1.0000
  O   O10       1.0  0.6660398202559176  0.06362308490273348  0.3032979000723895  1.0000
  O   O11       1.0  0.38379538507161814  0.0028191146513888497  0.11528265903831973  1.0000
  O   O12       1.0  0.3396908936934842  0.06299733556782455  0.2692908948484495  1.0000
  O   O13       1.0  0.2563152938678618  0.9908708752361676  0.6044994184197869  1.0000
  O   O14       1.0  0.12784365093644348  0.9960173979387172  0.640442170457298  1.0000
  O   O15       1.0  0.16981712232197363  0.9176370789634133  0.7602623220245774  1.0000
  O   O16       1.0  0.8964752174549923  0.9937645209275834  0.6352846964934001  1.0000
  O   O17       1.0  0.8500079903071236  0.9413522204790006  0.8100756452625009  1.0000
  O   O18       1.0  0.24021008266838056  0.0075866338571451645  0.3579947026881855  1.0000
  O   O19       1.0  0.11675178797003936  0.016243065344633642  0.3649349294580025  1.0000
  O   O20       1.0  0.1866797631065703  0.08708001195992218  0.5324500640523914  1.0000
  O   O21       1.0  0.18272567533217207  0.9158264745392432  0.4704803088342911  1.0000
  O   O22       1.0  0.1629095156365715  0.07821433860915668  0.20547599502032993  1.0000
  O   O23       1.0  0.8885165618998282  0.014901227012149671  0.38856979613005777  1.0000
  O   O24       1.0  0.8355467235171672  0.06657679291277725  0.22675867444538383  1.0000
  O   O25       1.0  0.25254157869638577  0.864810988110573  0.5988284700850004  1.0000
  O   O26       1.0  0.2464464661253936  0.6367921683626273  0.6002580461469322  1.0000
  O   O27       1.0  0.18440397058040828  0.5939329509946369  0.45011883508014183  1.0000
  O   O28       1.0  0.25657396423697165  0.995135574414231  0.8576381172695077  1.0000
  O   O29       1.0  0.2697559318404427  0.862658438966623  0.8579660939026801  1.0000
  O   O30       1.0  0.24609872416965412  0.13813827457891203  0.3835202328003713  1.0000
  O   O31       1.0  0.2210853857749805  0.36280424293911184  0.3529683944943182  1.0000
  O   O32       1.0  0.1748133385693462  0.415986933370985  0.517798400224886  1.0000
  O   O33       1.0  0.2590749582966315  0.01285502521510344  0.11105273985910584  1.0000
  O   O34       1.0  0.26897170576553353  0.1353905989803876  0.12099045108985558  1.0000
  O   O35       1.0  0.7506587023189144  0.8676509139227923  0.9040859980757442  1.0000
  O   O36       1.0  0.7442017850616238  0.6342467956289476  0.8952831112289296  1.0000
  O   O37       1.0  0.6671278983994179  0.588438014472854  0.017628401888483056  1.0000
  O   O38       1.0  0.7698035129929518  0.0015917081536538369  0.6544020316592412  1.0000
  O   O39       1.0  0.7726678234482788  0.8709088445584123  0.6558236324488889  1.0000
  O   O40       1.0  0.7380512372994544  0.13556837153801313  0.14175419252360533  1.0000
  O   O41       1.0  0.7342063111493218  0.3678962221329343  0.12641031296990146  1.0000
  O   O42       1.0  0.6916240844938218  0.4159104521836344  0.9546013260669439  1.0000
  O   O43       1.0  0.7617231423829564  0.0096066666038828  0.4029565895495914  1.0000
  O   O44       1.0  0.7559919293119662  0.13422177825363224  0.3928076517014959  1.0000
  O   O45       1.0  0.31064352629650305  0.9152137703638008  0.030583994059581603  1.0000
  O   O46       1.0  0.2703092755480223  0.6381896813596982  0.8607772894166777  1.0000
  O   O47       1.0  0.33189624878049795  0.5896903475423135  0.00946087256828986  1.0000
  O   O48       1.0  0.325578556961617  0.087715438429424  0.9578921615517162  1.0000
  O   O49       1.0  0.2501520539718646  0.3718409102471996  0.10172456979521355  1.0000
  O   O50       1.0  0.30739221427436836  0.4141063102349319  0.9357652900783795  1.0000
  O   O51       1.0  0.8263308536698893  0.9171070645637106  0.49568125168252514  1.0000
  O   O52       1.0  0.7574972868975627  0.6359744368468753  0.6368803069350696  1.0000
  O   O53       1.0  0.8214863371491881  0.5895776043334736  0.49542866737347735  1.0000
  O   O54       1.0  0.8257474508614171  0.0941360132774098  0.5402140202949735  1.0000
  O   O55       1.0  0.7612092291179661  0.36945904844446215  0.37152223609222745  1.0000
  O   O56       1.0  0.8120688915376848  0.4188693441063801  0.5360511439470236  1.0000
  O   O57       1.0  0.2386121529903199  0.4924418016867601  0.3688633376608083  1.0000
  O   O58       1.0  0.11512194627538978  0.5051133389113756  0.3646882996301262  1.0000
  O   O59       1.0  0.15715194265796342  0.43535764420209416  0.21320638999521857  1.0000
  O   O60       1.0  0.8848051389089815  0.4853058697506076  0.37130304975462153  1.0000
  O   O61       1.0  0.8319916346351356  0.4422719209541317  0.20211470206303422  1.0000
  O   O62       1.0  0.2333190542127112  0.5068726106823347  0.6299479990614499  1.0000
  O   O63       1.0  0.11594503061902087  0.5276697117709158  0.6187177037157727  1.0000
  O   O64       1.0  0.16086552620738215  0.5895399921225203  0.7779205070109344  1.0000
  O   O65       1.0  0.8871820943737878  0.509659144422023  0.6282813100383002  1.0000
  O   O66       1.0  0.8385238550887064  0.5718965317408157  0.7807653862648142  1.0000
  O   O67       1.0  0.7314102574482177  0.49907586802352644  0.1369881620306357  1.0000
  O   O68       1.0  0.6085910196742572  0.48606705142311935  0.12574642039532824  1.0000
  O   O69       1.0  0.6582897880388949  0.4356057155182649  0.2813053553179519  1.0000
  O   O70       1.0  0.3791572911328414  0.4838483699206459  0.10305399471088571  1.0000
  O   O71       1.0  0.3296794644524245  0.4302865685971511  0.2541197039967327  1.0000
  O   O72       1.0  0.7458466537678965  0.5117256764035323  0.8751861229701591  1.0000
  O   O73       1.0  0.6148000541470827  0.5027711413401407  0.8709421982213728  1.0000
  O   O74       1.0  0.6617335911862083  0.5743185756402176  0.7422971012053025  1.0000
  O   O75       1.0  0.37928872381658246  0.506175044398726  0.8429955241599738  1.0000
  O   O76       1.0  0.33483519869265105  0.5650537356309145  0.6824730956682341  1.0000
  O   O77       1.0  0.7575902774229174  0.4985092159422207  0.3767822746821025  1.0000
  O   O78       1.0  0.7551173041905356  0.516838141374007  0.6203650810131771  1.0000
  O   O79       1.0  0.25424653731921604  0.5074109963216992  0.11896320102734491  1.0000
  O   O80       1.0  0.24768044937982348  0.5171734672305692  0.8680781569299785  1.0000
