data_image0
_chemical_formula_structural       Al16H80C128O80
_chemical_formula_sum              "Al16 H80 C128 O80"
_cell_length_a       21.63717
_cell_length_b       21.63649
_cell_length_c       10.288049999999998
_cell_angle_alpha    90.00093999999999
_cell_angle_beta     89.99906
_cell_angle_gamma    90.00852000000002

_space_group_name_H-M_alt    "P 1"
_space_group_IT_number       1

loop_
  _space_group_symop_operation_xyz
  'x, y, z'

loop_
  _atom_site_type_symbol
  _atom_site_label
  _atom_site_symmetry_multiplicity
  _atom_site_fract_x
  _atom_site_fract_y
  _atom_site_fract_z
  _atom_site_occupancy
  Al  Al1       1.0  0.6774472406678849  0.9949080526864208  0.01750914022078799  1.0000
  Al  Al2       1.0  0.32488171306368474  0.9992325629168615  0.9867635334162793  1.0000
  Al  Al3       1.0  0.7489634771650435  0.9331154166576872  0.7682323571645764  1.0000
  Al  Al4       1.0  0.2529307425047223  0.9331383186988529  0.7409736677068587  1.0000
  Al  Al5       1.0  0.7484003353559546  0.07157979905515409  0.26587403936957255  1.0000
  Al  Al6       1.0  0.24724277066822492  0.06199894731528812  0.23251000244397674  1.0000
  Al  Al7       1.0  0.1848332748276111  0.9975588338947197  0.484319567006473  1.0000
  Al  Al8       1.0  0.8161392739095896  0.004726021656513195  0.5187149548686268  1.0000
  Al  Al9       1.0  0.25423469687648015  0.5749669140563213  0.7202986262697308  1.0000
  Al  Al10      1.0  0.18644922925849677  0.5035150138883673  0.48484005145215914  1.0000
  Al  Al11      1.0  0.24577424697324485  0.42990420922655653  0.20994730007934304  1.0000
  Al  Al12      1.0  0.754449906597773  0.566724329335784  0.7589335444619023  1.0000
  Al  Al13      1.0  0.6822681768073975  0.4977047202206669  0.011809249569422437  1.0000
  Al  Al14      1.0  0.74307064640318  0.42988306188141107  0.2666881800475683  1.0000
  Al  Al15      1.0  0.31913899433323817  0.4975020164462471  0.9766226981726639  1.0000
  Al  Al16      1.0  0.823051940833846  0.5007415077642781  0.5082052246448139  1.0000
  H   H1        1.0  0.7230954084077748  0.5045412769775842  0.6029404864546122  1.0000
  H   H2        1.0  0.7459233106357281  0.5305922402923626  0.3579856251662037  1.0000
  H   H3        1.0  0.22573832732403198  0.006838641013292491  0.896153132272996  1.0000
  H   H4        1.0  0.27959321753300187  0.4865386820214541  0.5785781009619821  1.0000
  H   H5        1.0  0.25932072319946425  0.5287164287391599  0.319899573863435  1.0000
  H   H6        1.0  0.7600806315978627  0.46943592513618354  0.857526409025447  1.0000
  H   H7        1.0  0.7602188766597625  0.5305903313411999  0.14091612505675585  1.0000
  H   H8        1.0  0.2452319415768917  0.4726378471650753  0.8137557537388583  1.0000
  H   H9        1.0  0.7139382035792445  0.007241424502452132  0.42721728424559025  1.0000
  H   H10       1.0  0.7601264017410708  0.9783148183586862  0.18161854097743022  1.0000
  H   H11       1.0  0.7794036940412651  0.9967621583562966  0.9392089339185177  1.0000
  H   H12       1.0  0.725632824258435  0.024821743941018284  0.6597389808395792  1.0000
  H   H13       1.0  0.25950608507945777  0.9629347271450808  0.15633990896553393  1.0000
  H   H14       1.0  0.2570471844726286  0.030780886213461978  0.6490183019908486  1.0000
  H   H15       1.0  0.2842358267100599  0.017864752031626185  0.41943891905281455  1.0000
  H   H16       1.0  0.21828863452017927  0.5081589010568204  0.07371087331458194  1.0000
  H   H17       1.0  0.6042702036349715  0.9097477883856159  0.5405156488835625  1.0000
  H   H18       1.0  0.4075024635197854  0.9250187986415269  0.5067226521452532  1.0000
  H   H19       1.0  0.5024546506883377  0.9900553091422709  0.8527345213486504  1.0000
  H   H20       1.0  0.5156568529919328  0.9059577656338814  0.40548222171574466  1.0000
  H   H21       1.0  0.5975564165907147  0.09290492363324362  0.4834565647852173  1.0000
  H   H22       1.0  0.3949601196089607  0.10387456270693828  0.45473852880371335  1.0000
  H   H23       1.0  0.4996621869761514  0.010386058111058276  0.15358926720080537  1.0000
  H   H24       1.0  0.49231141636084647  0.11233668558151437  0.5934841103652482  1.0000
  H   H25       1.0  0.10399109492426682  0.9307782549636874  0.9813432334326782  1.0000
  H   H26       1.0  0.9083170559809453  0.9396145535748265  0.00536778911295932  1.0000
  H   H27       1.0  0.9984214248852488  0.966650788854381  0.6309805280638224  1.0000
  H   H28       1.0  0.009431710360054302  0.9307289120271073  0.10864519421083763  1.0000
  H   H29       1.0  0.09141170476810512  0.07685111133533153  0.01844916870068483  1.0000
  H   H30       1.0  0.8892362682350146  0.09326435954807118  0.05919833789337178  1.0000
  H   H31       1.0  0.002847059137135039  0.023763453310770438  0.3792582472917666  1.0000
  H   H32       1.0  0.9858414657569826  0.10709908929094877  0.9212925620064834  1.0000
  H   H33       1.0  0.17730536367859673  0.8585414508696008  0.2508327808179865  1.0000
  H   H34       1.0  0.17246137042824689  0.658410784066064  0.25294751781925057  1.0000
  H   H35       1.0  0.24272932122357438  0.7535191324281997  0.5828536876875363  1.0000
  H   H36       1.0  0.15357982051959895  0.7648653568476693  0.140801040079494  1.0000
  H   H37       1.0  0.16198821918103262  0.1479237852275587  0.7054592543731046  1.0000
  H   H38       1.0  0.17049534003472058  0.3479063822223659  0.6960507950415452  1.0000
  H   H39       1.0  0.21634981450676743  0.24216522380155267  0.35573963588677576  1.0000
  H   H40       1.0  0.15191630045681886  0.25151032989911326  0.8202551428376665  1.0000
  H   H41       1.0  0.6578116100800949  0.8478303141251521  0.2164618300454724  1.0000
  H   H42       1.0  0.6378888871971026  0.647546146129698  0.2002254334450521  1.0000
  H   H43       1.0  0.7491876213948145  0.7470686923495352  0.9181152397725519  1.0000
  H   H44       1.0  0.6259078819210177  0.7481605630132795  0.3239543228208396  1.0000
  H   H45       1.0  0.6809878450363691  0.14670911987392343  0.7797979142946468  1.0000
  H   H46       1.0  0.6689141453393945  0.3430620192459753  0.7819119232667897  1.0000
  H   H47       1.0  0.7173152293445442  0.25226477679977466  0.12485204682575224  1.0000
  H   H48       1.0  0.6658664423216538  0.24229163456634895  0.6600458854522948  1.0000
  H   H49       1.0  0.34845106538301374  0.8393688086184783  0.22412200763220738  1.0000
  H   H50       1.0  0.33930557834279246  0.6426253692219133  0.19874891068280967  1.0000
  H   H51       1.0  0.27188872162078204  0.7546856507639712  0.8866669905817849  1.0000
  H   H52       1.0  0.35028740854865814  0.737122455672688  0.3395001959496679  1.0000
  H   H53       1.0  0.3573166067900762  0.15148391464717023  0.7879053330982536  1.0000
  H   H54       1.0  0.3697132440769342  0.34895855686110683  0.8017963833982095  1.0000
  H   H55       1.0  0.25378391694661406  0.23979467668569635  0.08222722578405667  1.0000
  H   H56       1.0  0.3971807695530923  0.2515712282244352  0.7065207120840351  1.0000
  H   H57       1.0  0.8179783078442333  0.8535175096640599  0.2970372860573591  1.0000
  H   H58       1.0  0.8241779203223373  0.6528398819566477  0.28520337680995406  1.0000
  H   H59       1.0  0.779281546662476  0.7443434911387479  0.6421159278753349  1.0000
  H   H60       1.0  0.8468478597255015  0.7567471846283198  0.17688684838135021  1.0000
  H   H61       1.0  0.8273425962720278  0.1487673150988397  0.7524807424228506  1.0000
  H   H62       1.0  0.8499348955742904  0.34735377794591904  0.7315637902251151  1.0000
  H   H63       1.0  0.7837056284191688  0.24150652191935892  0.400260837681408  1.0000
  H   H64       1.0  0.8596984890925118  0.24548661572427044  0.8578225341415594  1.0000
  H   H65       1.0  0.08933827002846619  0.4286861767965522  0.9941624651886254  1.0000
  H   H66       1.0  0.8861589893754117  0.4375641958744639  0.03984154141069591  1.0000
  H   H67       1.0  0.004601747137920054  0.49516446161429994  0.345479137538847  1.0000
  H   H68       1.0  0.9826575924823104  0.4204890911356269  0.8917600451464595  1.0000
  H   H69       1.0  0.11157839834684523  0.6141700199690439  0.9148906782658595  1.0000
  H   H70       1.0  0.9092626088027935  0.6338796896079986  0.931632230848356  1.0000
  H   H71       1.0  0.000355039348023547  0.5198968156388191  0.6410712819022989  1.0000
  H   H72       1.0  0.013134736059543657  0.649370620940441  0.03508458455170216  1.0000
  H   H73       1.0  0.5906043025839105  0.4082823457909436  0.4689111815454127  1.0000
  H   H74       1.0  0.3888346366714215  0.41546847832312  0.46229209435023716  1.0000
  H   H75       1.0  0.4954571632346166  0.4684600417750673  0.12110100362413623  1.0000
  H   H76       1.0  0.4868363722327553  0.41080899065184906  0.5923140091309773  1.0000
  H   H77       1.0  0.6036584652507971  0.607826555171058  0.5377246710007055  1.0000
  H   H78       1.0  0.40998668015660533  0.5998569096868053  0.5274562401485586  1.0000
  H   H79       1.0  0.5086153367260667  0.49953538552015475  0.8397877967472103  1.0000
  H   H80       1.0  0.5025777246659723  0.6263719385794506  0.4290994183725833  1.0000
  C   C1        1.0  0.5604878534959757  0.925761313568143  0.5833194892729962  1.0000
  C   C2        1.0  0.5553235693770717  0.9440598216918651  0.7107397846985424  1.0000
  C   C3        1.0  0.6120783755768007  0.9512607899602608  0.7927857273433743  1.0000
  C   C4        1.0  0.499847001074486  0.9663997941158514  0.7579934634939246  1.0000
  C   C5        1.0  0.5083921828936894  0.9231256823960898  0.5075506817526417  1.0000
  C   C6        1.0  0.4516229084072603  0.9341345144164329  0.5579252036629622  1.0000
  C   C7        1.0  0.4471341665472184  0.9588168300824015  0.6846138317655438  1.0000
  C   C8        1.0  0.38671653066779216  0.9661495513689091  0.7529293269457915  1.0000
  C   C9        1.0  0.552284800270093  0.08023719331848933  0.43233565750526254  1.0000
  C   C10       1.0  0.5504966731982959  0.05453780407047571  0.3043307119271977  1.0000
  C   C11       1.0  0.6142540773480222  0.044003377889175355  0.24451730801045873  1.0000
  C   C12       1.0  0.49502490397156496  0.04187763354061561  0.2360685174210475  1.0000
  C   C13       1.0  0.49505707648323366  0.09302393321334886  0.48872767641614784  1.0000
  C   C14       1.0  0.4406467725278004  0.08399069781111904  0.42007885373448617  1.0000
  C   C15       1.0  0.43981953816998365  0.05623679510783589  0.29853664307877237  1.0000
  C   C16       1.0  0.3797756268241932  0.04561295942311699  0.22836658848200417  1.0000
  C   C17       1.0  0.062154274850485594  0.9332290658544292  0.9282787012670178  1.0000
  C   C18       1.0  0.05789472350575252  0.9533885485402034  0.80011398294286  1.0000
  C   C19       1.0  0.11799004844994418  0.9585690329322479  0.7249636317870949  1.0000
  C   C20       1.0  0.00037419980328334823  0.9601114898965358  0.7342922586916908  1.0000
  C   C21       1.0  0.007328538014666375  0.935477357539786  0.0037699702838884797  1.0000
  C   C22       1.0  0.9489952031293104  0.9427726734024153  0.9439042493585671  1.0000
  C   C23       1.0  0.9457367667424069  0.9561405624803546  0.8083589710623607  1.0000
  C   C24       1.0  0.8818754319417097  0.9652739097410776  0.7512043217208192  1.0000
  C   C25       1.0  0.04734573218891885  0.07043213092680935  0.07537038021866918  1.0000
  C   C26       1.0  0.049470921181168685  0.047054450931426316  0.20363501738072895  1.0000
  C   C27       1.0  0.11196141661242213  0.037291574983454194  0.26220589039963593  1.0000
  C   C28       1.0  0.9949420878785324  0.03363945523791734  0.27357411761776523  1.0000
  C   C29       1.0  0.9898573230310702  0.08790029001644768  0.018931500143605055  1.0000
  C   C30       1.0  0.935110826778735  0.08083520374530206  0.09621942061580227  1.0000
  C   C31       1.0  0.9390372086198803  0.05445986742439319  0.22003758735710097  1.0000
  C   C32       1.0  0.881175151480826  0.04602066637411483  0.2908053713585333  1.0000
  C   C33       1.0  0.18470321408646753  0.8145339894944932  0.30441462578844763  1.0000
  C   C34       1.0  0.2115033572833655  0.8118908467218281  0.4294931946471048  1.0000
  C   C35       1.0  0.2166752402691229  0.8671884187281981  0.5086018887357834  1.0000
  C   C36       1.0  0.22204034000468442  0.7547475917924901  0.4926581666461606  1.0000
  C   C37       1.0  0.17101981650480264  0.7601850588920105  0.24112719326476964  1.0000
  C   C38       1.0  0.18159598985751368  0.7039607636728796  0.3018174348720747  1.0000
  C   C39       1.0  0.20847361614086493  0.7005333727102634  0.42631570717291895  1.0000
  C   C40       1.0  0.2217567494695126  0.6372924662000443  0.4867786753901618  1.0000
  C   C41       1.0  0.16806819078155114  0.19169518264002441  0.6508966735000462  1.0000
  C   C42       1.0  0.19088860456780074  0.19106478104175897  0.5279556574337957  1.0000
  C   C43       1.0  0.1969647895094009  0.1327820088702249  0.46228125264553804  1.0000
  C   C44       1.0  0.20498579867901123  0.24765516622979167  0.4553661686384477  1.0000
  C   C45       1.0  0.16198695794530873  0.24898459710397267  0.7167259181267989  1.0000
  C   C46       1.0  0.1733991482823426  0.3042922107123478  0.6474893912639146  1.0000
  C   C47       1.0  0.19588049078996495  0.3039496159243482  0.51583255149695  1.0000
  C   C48       1.0  0.20299392216207102  0.3634872390801276  0.4404231784662213  1.0000
  C   C49       1.0  0.6685411809188871  0.8047138090833931  0.17498405533453684  1.0000
  C   C50       1.0  0.7034535132266654  0.8048651289397392  0.05914328178457056  1.0000
  C   C51       1.0  0.7138434674712951  0.8629595433535059  0.9958646432275572  1.0000
  C   C52       1.0  0.7202571662187696  0.7487859501000673  0.004744742957300652  1.0000
  C   C53       1.0  0.6484341815466442  0.7477635675035545  0.2251802033061135  1.0000
  C   C54       1.0  0.6576739090053993  0.6922857229243308  0.16630314203959418  1.0000
  C   C55       1.0  0.6984003410521951  0.6933006183483367  0.053744674661262724  1.0000
  C   C56       1.0  0.7121744823581916  0.6329779127391342  0.9907926597113376  1.0000
  C   C57       1.0  0.6800001930129768  0.19042449669295755  0.8289378397553565  1.0000
  C   C58       1.0  0.6913648558476145  0.19114528061213365  0.9648329909624616  1.0000
  C   C59       1.0  0.7048294615308033  0.13079208685959937  0.03714191028453745  1.0000
  C   C60       1.0  0.6982887646460773  0.24573108489587833  0.03402583872494865  1.0000
  C   C61       1.0  0.6785812784108056  0.24677206202304452  0.760085159199699  1.0000
  C   C62       1.0  0.6821211587967917  0.3012665085571616  0.8304474513925648  1.0000
  C   C63       1.0  0.6931854023336573  0.30323191894647966  0.965915237841413  1.0000
  C   C64       1.0  0.7003858613398223  0.36346633126669564  0.03415966972308441  1.0000
  C   C65       1.0  0.3312098323191917  0.7995815063031544  0.17150842000912309  1.0000
  C   C66       1.0  0.3089738205212597  0.8052574853445141  0.04495364914871759  1.0000
  C   C67       1.0  0.3021542639722113  0.8677090182382193  0.975034743483906  1.0000
  C   C68       1.0  0.2940026095478698  0.7515501091966493  0.9789094291639645  1.0000
  C   C69       1.0  0.3396166853872818  0.742543440612065  0.2341749156203911  1.0000
  C   C70       1.0  0.33139130089118707  0.6867554587986769  0.16314407593778218  1.0000
  C   C71       1.0  0.3056789755272894  0.6921584286417449  0.03445183198909293  1.0000
  C   C72       1.0  0.3004516312968142  0.6334939124462248  0.9546610992990109  1.0000
  C   C73       1.0  0.3441906263449269  0.19267171017410317  0.8413309123040236  1.0000
  C   C74       1.0  0.3027469826495921  0.19186450318766693  0.9470083895997785  1.0000
  C   C75       1.0  0.29490243668727606  0.13052636999484263  0.01491989444465268  1.0000
  C   C76       1.0  0.2820276290073312  0.24792788509556243  0.9999838997672013  1.0000
  C   C77       1.0  0.3644188148165906  0.24884980694058936  0.7875596154937556  1.0000
  C   C78       1.0  0.34812040296189706  0.30538528875350135  0.8426868748045707  1.0000
  C   C79       1.0  0.3026288943832829  0.30305056855194684  0.9502958434913421  1.0000
  C   C80       1.0  0.28602104721171384  0.3627187220459396  0.002581105263596732  1.0000
  C   C81       1.0  0.8168734432218407  0.8096402121719435  0.34415748183114153  1.0000
  C   C82       1.0  0.7934859885313141  0.8079807692682278  0.4766556413819651  1.0000
  C   C83       1.0  0.7926730613432833  0.8652019584959446  0.5502791628660016  1.0000
  C   C84       1.0  0.7908018548472401  0.7495963892667902  0.5391693140578446  1.0000
  C   C85       1.0  0.8263806178555689  0.7552890399669066  0.27197933920937734  1.0000
  C   C86       1.0  0.8152891975808957  0.6990948246536741  0.3330463013809334  1.0000
  C   C87       1.0  0.7985933015835193  0.696630731731809  0.4654148182880724  1.0000
  C   C88       1.0  0.7936605583481047  0.6357458228275893  0.525925656607048  1.0000
  C   C89       1.0  0.8242658485416112  0.19155915024975445  0.6984583193057805  1.0000
  C   C90       1.0  0.7993651257405255  0.19472049932236457  0.5719297924857979  1.0000
  C   C91       1.0  0.7905974618144036  0.1339663766533651  0.4998574065429275  1.0000
  C   C92       1.0  0.7905023951453316  0.24814872924843473  0.5040810290964428  1.0000
  C   C93       1.0  0.8427118189121603  0.24573863551980005  0.760073569053847  1.0000
  C   C94       1.0  0.8356138716620729  0.3033938982881074  0.6904045433207981  1.0000
  C   C95       1.0  0.809014935196641  0.3056779893179099  0.5611226609079069  1.0000
  C   C96       1.0  0.8000762964346809  0.3685287626428891  0.49880697424497905  1.0000
  C   C97       1.0  0.04788557248612571  0.43963251899542266  0.05134906616338093  1.0000
  C   C98       1.0  0.05396276742187673  0.4598407264825203  0.18552872901217207  1.0000
  C   C99       1.0  0.11430180598215095  0.46818503151514673  0.2462083952431882  1.0000
  C   C100      1.0  0.9982991872199463  0.47231340288960905  0.2547113486720248  1.0000
  C   C101      1.0  0.9901132929560131  0.43365083888543354  0.992861528664833  1.0000
  C   C102      1.0  0.9339888861707479  0.43994893731754964  0.07115088283950766  1.0000
  C   C103      1.0  0.9397551887547443  0.45534888845218036  0.2039716030311614  1.0000
  C   C104      1.0  0.88033479198658  0.4579380036603033  0.2774758123034251  1.0000
  C   C105      1.0  0.06391198446229  0.6052160066606657  0.8837386640273739  1.0000
  C   C106      1.0  0.06302200469991019  0.5660188399391748  0.7740192837460007  1.0000
  C   C107      1.0  0.11966616320476894  0.5561480084952174  0.6972040281618346  1.0000
  C   C108      1.0  0.004664009276799874  0.5482481871932232  0.7294227703033682  1.0000
  C   C109      1.0  0.0086296683327704  0.6230318212960109  0.9467917275500606  1.0000
  C   C110      1.0  0.9519470973131509  0.6102458530574892  0.8914422113489101  1.0000
  C   C111      1.0  0.9499247284723039  0.5730935385574959  0.7790217001430683  1.0000
  C   C112      1.0  0.888092281655725  0.5480398080735422  0.7287550276308649  1.0000
  C   C113      1.0  0.5477866158303648  0.4180971461084745  0.41964983171367676  1.0000
  C   C114      1.0  0.5494913012176885  0.4417926243909591  0.29404803250510414  1.0000
  C   C115      1.0  0.6109955004628383  0.45550477119163607  0.24216331867268162  1.0000
  C   C116      1.0  0.49561288856827834  0.44973160480742047  0.21967384981684723  1.0000
  C   C117      1.0  0.48937428081348683  0.41404443613059483  0.485257519291172  1.0000
  C   C118      1.0  0.43402742380429205  0.42287050518808844  0.41327901508490467  1.0000
  C   C119      1.0  0.43973620747634384  0.43578338937402855  0.2743639728383549  1.0000
  C   C120      1.0  0.384367687343011  0.44538315594310696  0.190405774712135  1.0000
  C   C121      1.0  0.5619046136925254  0.5907939365941522  0.5845514379905287  1.0000
  C   C122      1.0  0.5618866382223667  0.5574639205713569  0.7053703483121653  1.0000
  C   C123      1.0  0.6206634914003075  0.5441829582169606  0.7721746679047958  1.0000
  C   C124      1.0  0.5057898554711722  0.5306871922794952  0.7517818811224162  1.0000
  C   C125      1.0  0.5071183171192191  0.6026548386269748  0.5205285123459934  1.0000
  C   C126      1.0  0.4515618480460939  0.5840508868722412  0.5766926338418553  1.0000
  C   C127      1.0  0.4493666200766911  0.5476333390067177  0.6881427006969517  1.0000
  C   C128      1.0  0.386924358250748  0.5326759173266558  0.7469177416583324  1.0000
  O   O1        1.0  0.7405182791353605  0.9962234416077236  0.8859466441602576  1.0000
  O   O2        1.0  0.6138704001075429  0.9840147652186474  0.8967211019078222  1.0000
  O   O3        1.0  0.6593909782178835  0.9269883116145021  0.739757103829023  1.0000
  O   O4        1.0  0.3854017937829554  0.9968320196312945  0.8552653546948148  1.0000
  O   O5        1.0  0.3390989906822524  0.9375698265574065  0.7037282723109264  1.0000
  O   O6        1.0  0.739803469837522  0.010961539197138838  0.1388976959078318  1.0000
  O   O7        1.0  0.6177730267104503  0.002206416808247326  0.15444671832151086  1.0000
  O   O8        1.0  0.6741767516366857  0.08310924390399495  0.993026418295927  1.0000
  O   O9        1.0  0.6894819004538967  0.9123221318095306  0.04149896725957776  1.0000
  O   O10       1.0  0.6571879449890548  0.07865452049141543  0.29377087891421305  1.0000
  O   O11       1.0  0.3828289676632585  0.011316050959551287  0.12675108114277614  1.0000
  O   O12       1.0  0.3333919037841373  0.07188055914040324  0.28621340786567373  1.0000
  O   O13       1.0  0.24002692615657786  0.9928779590585616  0.6121348760644466  1.0000
  O   O14       1.0  0.11730824390295219  0.9903913990428439  0.6194213686476061  1.0000
  O   O15       1.0  0.16635760020241508  0.9302425643141538  0.7708969729088018  1.0000
  O   O16       1.0  0.8732567386945129  0.0011172583599010633  0.6568427254745665  1.0000
  O   O17       1.0  0.8410553483404994  0.9313504616129198  0.8066193158308234  1.0000
  O   O18       1.0  0.24831233649965614  0.009056391446904255  0.3664388121183865  1.0000
  O   O19       1.0  0.11159926476831164  0.0035411603843129723  0.36785848251306097  1.0000
  O   O20       1.0  0.176888933986504  0.08672957326968991  0.5223581195120808  1.0000
  O   O21       1.0  0.1857106592939993  0.9122198914165681  0.45413296020697475  1.0000
  O   O22       1.0  0.1594388682276787  0.055215390361170014  0.19256858010343733  1.0000
  O   O23       1.0  0.8773756947424386  0.008670531948167524  0.3888663421228184  1.0000
  O   O24       1.0  0.8328735439524129  0.07498751030376653  0.24803549561741442  1.0000
  O   O25       1.0  0.2451319640429382  0.8690185739900823  0.6202717309613929  1.0000
  O   O26       1.0  0.2593473516773616  0.6359725806787132  0.5906555607365205  1.0000
  O   O27       1.0  0.19100489799189693  0.5929032663531163  0.43997907098217626  1.0000
  O   O28       1.0  0.2646842275642444  0.9927125652857379  0.8606471014801531  1.0000
  O   O29       1.0  0.27130504137544476  0.8678840128614967  0.8692605491231806  1.0000
  O   O30       1.0  0.22512497288368133  0.13424493308446683  0.3473545483314843  1.0000
  O   O31       1.0  0.22639461359558213  0.36053352062679106  0.32654022977183217  1.0000
  O   O32       1.0  0.1903072493506222  0.41506314843680703  0.5000024738783702  1.0000
  O   O33       1.0  0.2627535181957074  0.001715573828083605  0.11184749396724104  1.0000
  O   O34       1.0  0.25354651143381335  0.1280264616987962  0.10599361689469497  1.0000
  O   O35       1.0  0.7516090841729112  0.8671281722216914  0.8984836380546022  1.0000
  O   O36       1.0  0.7532360330738406  0.6296875163623802  0.9002062229958464  1.0000
  O   O37       1.0  0.6801708174949054  0.5877530178731858  0.02751266956091532  1.0000
  O   O38       1.0  0.753988076860085  0.9919028586963683  0.6343022236241275  1.0000
  O   O39       1.0  0.7595601795620374  0.8666239319796156  0.6544777282198342  1.0000
  O   O40       1.0  0.7400204808134113  0.1352551638860069  0.13224874007865045  1.0000
  O   O41       1.0  0.7295633277380447  0.3616729177367288  0.14328709526068806  1.0000
  O   O42       1.0  0.678730017669957  0.4112555223596415  0.9787687037592095  1.0000
  O   O43       1.0  0.7548918472930595  0.003709949539933903  0.3836490229987429  1.0000
  O   O44       1.0  0.7533040943844321  0.13126047919827855  0.4045005361676847  1.0000
  O   O45       1.0  0.3319157903378132  0.9127014651367096  0.026931967678478146  1.0000
  O   O46       1.0  0.2600180622390666  0.6347372601578414  0.8635268250437026  1.0000
  O   O47       1.0  0.3311324564666976  0.5838804209141519  0.983044908408596  1.0000
  O   O48       1.0  0.32719181613723386  0.08675239072692677  0.9665330225529676  1.0000
  O   O49       1.0  0.24596854764182113  0.36736135299350886  0.09482340193355782  1.0000
  O   O50       1.0  0.30775364904258556  0.409382065385077  0.9380447103773002  1.0000
  O   O51       1.0  0.8191959475525358  0.911185883466182  0.49696004698421403  1.0000
  O   O52       1.0  0.7700102720408389  0.6350717284364847  0.643272290840445  1.0000
  O   O53       1.0  0.8120323402103503  0.5877556340130663  0.4610477360895905  1.0000
  O   O54       1.0  0.8231329357313477  0.09087844916054257  0.5458275019572458  1.0000
  O   O55       1.0  0.7592945145157524  0.3695824164832197  0.4099865923216876  1.0000
  O   O56       1.0  0.8354681415393073  0.41277284942366366  0.5287936928245957  1.0000
  O   O57       1.0  0.24701150020752724  0.4887430920370102  0.35468081910391297  1.0000
  O   O58       1.0  0.11993990104491124  0.49717912428296734  0.35275687044451426  1.0000
  O   O59       1.0  0.16145098502673697  0.4416472220213249  0.18817750988000748  1.0000
  O   O60       1.0  0.8749766171815188  0.49941133287097117  0.36625672999393105  1.0000
  O   O61       1.0  0.8384063612699051  0.4223791398483937  0.2484836087196292  1.0000
  O   O62       1.0  0.24562804901217386  0.5171465652690198  0.594117683297121  1.0000
  O   O63       1.0  0.1263581063893489  0.5146450428443985  0.6089650946181301  1.0000
  O   O64       1.0  0.1650965737198625  0.5895099355020826  0.7281475791832307  1.0000
  O   O65       1.0  0.893111999029555  0.5153685037375573  0.6181745764952107  1.0000
  O   O66       1.0  0.8402160277662913  0.5539606031515791  0.8003476151667166  1.0000
  O   O67       1.0  0.7461242829238663  0.4892479355354163  0.12708870391880608  1.0000
  O   O68       1.0  0.614903045679056  0.49433138317169417  0.15021440996261698  1.0000
  O   O69       1.0  0.6546901475000059  0.4261782385963202  0.293109628239709  1.0000
  O   O70       1.0  0.3850999502587938  0.48150090649869043  0.09613125424800234  1.0000
  O   O71       1.0  0.3371613940714763  0.4149706673907521  0.22621271189645456  1.0000
  O   O72       1.0  0.7418987546841961  0.5067623470019044  0.8921581225276058  1.0000
  O   O73       1.0  0.6185220599216853  0.5120003501631286  0.8742735165964998  1.0000
  O   O74       1.0  0.6726430101860814  0.5669881995317799  0.7195572583718248  1.0000
  O   O75       1.0  0.37767739247728743  0.49145126917861937  0.8338596208522241  1.0000
  O   O76       1.0  0.3424200343723163  0.570834506485561  0.7051050531395394  1.0000
  O   O77       1.0  0.7526099153249391  0.48959856037130317  0.39030417533746853  1.0000
  O   O78       1.0  0.7646850395225923  0.5050916500439896  0.638026755484909  1.0000
  O   O79       1.0  0.2594082374259133  0.49682954574904387  0.10357481255308533  1.0000
  O   O80       1.0  0.2543554944744906  0.5116547046076099  0.8481033327353736  1.0000
