data_image0
_chemical_formula_structural       Al16H80C128O80
_chemical_formula_sum              "Al16 H80 C128 O80"
_cell_length_a       21.63717
_cell_length_b       21.63649
_cell_length_c       10.288049999999998
_cell_angle_alpha    90.00093999999999
_cell_angle_beta     89.99906
_cell_angle_gamma    90.00852000000002

_space_group_name_H-M_alt    "P 1"
_space_group_IT_number       1

loop_
  _space_group_symop_operation_xyz
  'x, y, z'

loop_
  _atom_site_type_symbol
  _atom_site_label
  _atom_site_symmetry_multiplicity
  _atom_site_fract_x
  _atom_site_fract_y
  _atom_site_fract_z
  _atom_site_occupancy
  Al  Al1       1.0  0.6808661342533268  0.0013232318656983821  0.00914601892733052  1.0000
  Al  Al2       1.0  0.31083462086978286  0.0036572810105885978  0.9916090026756059  1.0000
  Al  Al3       1.0  0.7558316342297376  0.9253297229839386  0.7618834455615439  1.0000
  Al  Al4       1.0  0.2522686323148582  0.9328415892317776  0.7456899288071701  1.0000
  Al  Al5       1.0  0.7462790243684458  0.06653452427939453  0.26056462115963963  1.0000
  Al  Al6       1.0  0.24429212321310684  0.07206317322007724  0.24851328003733103  1.0000
  Al  Al7       1.0  0.18151744932439381  0.00305125907290997  0.49428113115396266  1.0000
  Al  Al8       1.0  0.8181016419416457  0.9987642005167651  0.5118292321107607  1.0000
  Al  Al9       1.0  0.25053173612652446  0.5713254238683467  0.7330671324526666  1.0000
  Al  Al10      1.0  0.18003425345319868  0.5045108619419448  0.47936614434486907  1.0000
  Al  Al11      1.0  0.24987234796426464  0.43562120060488113  0.23202233957284468  1.0000
  Al  Al12      1.0  0.7606613003693493  0.5704362789451752  0.7630204695848669  1.0000
  Al  Al13      1.0  0.6796504635413307  0.5005169575997742  0.0021225567533086215  1.0000
  Al  Al14      1.0  0.7524598850059923  0.42721154456861066  0.2607212776689328  1.0000
  Al  Al15      1.0  0.3227183493002954  0.5080587595062477  0.9816779049430427  1.0000
  Al  Al16      1.0  0.8201201441206487  0.4982876581999882  0.5029850079842754  1.0000
  H   H1        1.0  0.7193859023472219  0.5070196645396693  0.606063887877491  1.0000
  H   H2        1.0  0.72961324092137  0.5214026560317121  0.3740096384674965  1.0000
  H   H3        1.0  0.20895979387456046  0.0017362608607823615  0.9030508767453788  1.0000
  H   H4        1.0  0.27973770807721826  0.4989864212859056  0.5637829143094131  1.0000
  H   H5        1.0  0.25918852740608794  0.5390585544576404  0.33179334771104757  1.0000
  H   H6        1.0  0.7632322737534245  0.4677016633630909  0.8654838100899862  1.0000
  H   H7        1.0  0.7734569717173594  0.522901923882822  0.11715924400876561  1.0000
  H   H8        1.0  0.23405426416121336  0.4704989874813604  0.8355874555735545  1.0000
  H   H9        1.0  0.7129514181404047  0.002822612866594243  0.4258383329376341  1.0000
  H   H10       1.0  0.7533981462571705  0.9618496185463854  0.1768357706746768  1.0000
  H   H11       1.0  0.7859882846630356  0.9990299601279342  0.9363635686638895  1.0000
  H   H12       1.0  0.7585919260320071  0.024935539526985812  0.6984742708223501  1.0000
  H   H13       1.0  0.2346927309243485  0.967655384784591  0.14206344937994408  1.0000
  H   H14       1.0  0.2531562965429945  0.04142716013113432  0.6567606438361386  1.0000
  H   H15       1.0  0.2746519413096493  0.006281314348480782  0.42156721061495633  1.0000
  H   H16       1.0  0.22367954475790647  0.5251940167758596  0.09449064888502856  1.0000
  H   H17       1.0  0.6023134286378724  0.9035593165315541  0.5580083379790115  1.0000
  H   H18       1.0  0.4043636410516194  0.9076010779483394  0.553324274428293  1.0000
  H   H19       1.0  0.5026985813155926  0.9962122459736998  0.8570643622817707  1.0000
  H   H20       1.0  0.5010069086355289  0.8819000338436904  0.4437163506425927  1.0000
  H   H21       1.0  0.5929885350632381  0.10326040595029295  0.46987006879835713  1.0000
  H   H22       1.0  0.39107243269338926  0.08695920329994539  0.45443864204180706  1.0000
  H   H23       1.0  0.499552618697642  0.019421165435698242  0.14640230854295488  1.0000
  H   H24       1.0  0.4921854006329576  0.12104681555995891  0.574451903090527  1.0000
  H   H25       1.0  0.10904076111933067  0.907849068062799  0.9634623667913313  1.0000
  H   H26       1.0  0.9126770612037872  0.9173368529986646  0.010994601775765167  1.0000
  H   H27       1.0  0.9969848781859176  0.9768662278709814  0.6516113113567807  1.0000
  H   H28       1.0  0.01520848367672012  0.8929389396235783  0.09145544979400513  1.0000
  H   H29       1.0  0.09105515668676278  0.08586720275464266  0.0208174571524864  1.0000
  H   H30       1.0  0.8976168003535755  0.08850347937003158  0.03825030303176057  1.0000
  H   H31       1.0  0.007732631685149745  0.01913795783802979  0.3649455476023573  1.0000
  H   H32       1.0  0.9940108101679288  0.12178462324818937  0.928907429743429  1.0000
  H   H33       1.0  0.1478788502144802  0.8528851555662395  0.3000417446290338  1.0000
  H   H34       1.0  0.16159229577488182  0.6540380732347604  0.26999447132814663  1.0000
  H   H35       1.0  0.22895597856244918  0.7500543605498191  0.5977192112844433  1.0000
  H   H36       1.0  0.12449506745466175  0.748997392514329  0.17506343286479958  1.0000
  H   H37       1.0  0.1736255850282215  0.1624203311526921  0.720791388260717  1.0000
  H   H38       1.0  0.15678637844964588  0.358862805645723  0.7047210969961436  1.0000
  H   H39       1.0  0.22665546166768202  0.2542224963004928  0.37193387581026344  1.0000
  H   H40       1.0  0.156297816167747  0.2604648359986361  0.8326959756518972  1.0000
  H   H41       1.0  0.6551007828626344  0.8463273986032144  0.22365362052276516  1.0000
  H   H42       1.0  0.6404863911930915  0.6481667593133089  0.2171771103951966  1.0000
  H   H43       1.0  0.7409935785776152  0.7526329997543277  0.9094651078210209  1.0000
  H   H44       1.0  0.6230925658840215  0.7477151099120143  0.3225235210650198  1.0000
  H   H45       1.0  0.673697831857404  0.1472853777689772  0.7979776743123699  1.0000
  H   H46       1.0  0.6857710698791013  0.3488668825120295  0.779924615661801  1.0000
  H   H47       1.0  0.7419317937643317  0.24646964941289512  0.12541871203456917  1.0000
  H   H48       1.0  0.6630380834288581  0.24645488692270662  0.6605612863301509  1.0000
  H   H49       1.0  0.33864825778269725  0.8436362718684078  0.21253709698032724  1.0000
  H   H50       1.0  0.337718669227383  0.645633603088454  0.18743858753786818  1.0000
  H   H51       1.0  0.25981418029834724  0.7605422022516228  0.8779937872027177  1.0000
  H   H52       1.0  0.36221921267932694  0.7401989017648073  0.3145796716453539  1.0000
  H   H53       1.0  0.33956108197162876  0.15171633714131522  0.7805394095247492  1.0000
  H   H54       1.0  0.34920283272933333  0.3434266350083633  0.7726989849523852  1.0000
  H   H55       1.0  0.2647025743076665  0.25756550245328613  0.09940981140986269  1.0000
  H   H56       1.0  0.3670223003410828  0.24831133843331407  0.6678147162823851  1.0000
  H   H57       1.0  0.8249405957124822  0.8505668263426907  0.2880928942605886  1.0000
  H   H58       1.0  0.8275410203073084  0.6554154878820684  0.2610938273747596  1.0000
  H   H59       1.0  0.7700114217152685  0.7455457350527273  0.6165066394221387  1.0000
  H   H60       1.0  0.8478540509109833  0.7558087810885037  0.16243699539268788  1.0000
  H   H61       1.0  0.8644629062009891  0.15478825415284536  0.7179716673215879  1.0000
  H   H62       1.0  0.8547684621306849  0.35129301968100207  0.7046824803486635  1.0000
  H   H63       1.0  0.7696343696714372  0.23996743241720783  0.4018947741421099  1.0000
  H   H64       1.0  0.8673241559682652  0.26055242473355644  0.8446226575821971  1.0000
  H   H65       1.0  0.09420557966863408  0.41292009061627816  0.011096367147391656  1.0000
  H   H66       1.0  0.890841873088552  0.41484589822687745  0.03223060250380174  1.0000
  H   H67       1.0  0.9977645658802352  0.48709311882943007  0.347579611390142  1.0000
  H   H68       1.0  0.9920823799382433  0.3973300960486054  0.8974481250076334  1.0000
  H   H69       1.0  0.10989824706822805  0.5821168205958265  0.9635982020565543  1.0000
  H   H70       1.0  0.9041752060926984  0.5938794982912354  0.968193536450606  1.0000
  H   H71       1.0  0.00836935589045592  0.5375769490173057  0.625811965506845  1.0000
  H   H72       1.0  0.010975430291628783  0.6106779598974504  0.07724775834233673  1.0000
  H   H73       1.0  0.5984638876121177  0.42362343134543157  0.4831947542379587  1.0000
  H   H74       1.0  0.39455665250800004  0.4218363245119284  0.44581241452309517  1.0000
  H   H75       1.0  0.5046509658790005  0.47856532243237937  0.136990111865639  1.0000
  H   H76       1.0  0.48915599387826714  0.418034195405171  0.5827660141244955  1.0000
  H   H77       1.0  0.6048607211567624  0.5933757370169102  0.5250498278540361  1.0000
  H   H78       1.0  0.40870806019489875  0.6009203187443671  0.5152448473157273  1.0000
  H   H79       1.0  0.5062587232747697  0.5215967924847731  0.8450372035847096  1.0000
  H   H80       1.0  0.5041203211272774  0.6101481359532984  0.3979939960538619  1.0000
  C   C1        1.0  0.5600978701825622  0.9181917067914154  0.5987286921873155  1.0000
  C   C2        1.0  0.5613407738886451  0.9517992066586636  0.7144348717179708  1.0000
  C   C3        1.0  0.6193728062513931  0.9587001006189226  0.7814021765216423  1.0000
  C   C4        1.0  0.5048161414890711  0.9676236114518396  0.7713333393729235  1.0000
  C   C5        1.0  0.5033642241085151  0.9032294311773343  0.5374995953060284  1.0000
  C   C6        1.0  0.4496023797251567  0.9185931833323774  0.5947175180570279  1.0000
  C   C7        1.0  0.4486571359596779  0.9493643549659665  0.7119241228387418  1.0000
  C   C8        1.0  0.3822619681174819  0.9622895780899712  0.77134390016919  1.0000
  C   C9        1.0  0.55173114204672  0.08480334103482531  0.4271704473814489  1.0000
  C   C10       1.0  0.5528470699630842  0.055962415432846274  0.30468123607909925  1.0000
  C   C11       1.0  0.6146546706720486  0.04375250295497278  0.24171486342593987  1.0000
  C   C12       1.0  0.4978974820576442  0.03683986539134002  0.24105200214495512  1.0000
  C   C13       1.0  0.4914523093511061  0.09351928681110369  0.4866717931335343  1.0000
  C   C14       1.0  0.4385107856167869  0.07798659099747049  0.41814952796280525  1.0000
  C   C15       1.0  0.4391135515717269  0.05269327536342337  0.29155243032520517  1.0000
  C   C16       1.0  0.38091454366345334  0.048949015189509414  0.21625738411057063  1.0000
  C   C17       1.0  0.06534812599226243  0.9173987682431088  0.9210959222156052  1.0000
  C   C18       1.0  0.06205588774933441  0.9484412767536176  0.796645455864395  1.0000
  C   C19       1.0  0.12036444711096321  0.9572887773653156  0.7212515016934155  1.0000
  C   C20       1.0  0.0018241067101700814  0.95948169277999  0.747512897203032  1.0000
  C   C21       1.0  0.01117033730962902  0.911454600127672  0.9930757561199206  1.0000
  C   C22       1.0  0.9538291817479607  0.9245252233434167  0.9455849517273011  1.0000
  C   C23       1.0  0.948045841625253  0.9483869844228558  0.8155155119053595  1.0000
  C   C24       1.0  0.8891647289916265  0.9544525580226724  0.7388457474492889  1.0000
  C   C25       1.0  0.05101010092050765  0.0733356634946846  0.07277900284325063  1.0000
  C   C26       1.0  0.05297226014400772  0.045522271445894005  0.19423862544775658  1.0000
  C   C27       1.0  0.1144907528340955  0.04782355730353639  0.264384283778948  1.0000
  C   C28       1.0  0.9991311842402789  0.029573694021280014  0.2602954263170071  1.0000
  C   C29       1.0  0.9951992757442394  0.09510647169443559  0.019856414972222805  1.0000
  C   C30       1.0  0.9417275370021517  0.07569376597679282  0.08332766269902567  1.0000
  C   C31       1.0  0.939517448042836  0.03958137858552974  0.19911210779023097  1.0000
  C   C32       1.0  0.8808085960280375  0.03430299313322874  0.2674167807058094  1.0000
  C   C33       1.0  0.1633324728584642  0.8093438417539257  0.33191823726741104  1.0000
  C   C34       1.0  0.19524121689398055  0.8095000487222448  0.44847595717766775  1.0000
  C   C35       1.0  0.20934723770390215  0.868867325480187  0.5171272195830872  1.0000
  C   C36       1.0  0.21008574093951818  0.7508785244361411  0.5003836228814422  1.0000
  C   C37       1.0  0.1483034945524298  0.7536897220615518  0.2669694121567414  1.0000
  C   C38       1.0  0.16925377982504447  0.6988104063048017  0.3176121462161808  1.0000
  C   C39       1.0  0.2024441656648282  0.6943179161216066  0.4360759882783785  1.0000
  C   C40       1.0  0.21025639474357316  0.633517629525402  0.4948073990085568  1.0000
  C   C41       1.0  0.1788219904226946  0.20361130444207004  0.6699019310612575  1.0000
  C   C42       1.0  0.20027986100493259  0.19897837518736497  0.5429395280449888  1.0000
  C   C43       1.0  0.2056476858871466  0.13812529871751586  0.4767162272072835  1.0000
  C   C44       1.0  0.21141087326129573  0.2565969294179513  0.4744917483209874  1.0000
  C   C45       1.0  0.16958558900770032  0.260964291769783  0.7293530428039691  1.0000
  C   C46       1.0  0.17334377966688297  0.31537553253781386  0.6605207431757035  1.0000
  C   C47       1.0  0.19414112317445967  0.3125501179314253  0.5297196758828588  1.0000
  C   C48       1.0  0.1997163744459741  0.36860221220387335  0.45490288356486397  1.0000
  C   C49       1.0  0.6657513116955551  0.8011686230272822  0.18368388183461093  1.0000
  C   C50       1.0  0.7007776733561273  0.8026093422456372  0.06450167137393258  1.0000
  C   C51       1.0  0.7065499103399056  0.860894971532447  0.9994373348464637  1.0000
  C   C52       1.0  0.7143431038184804  0.745899643982567  0.0019434083984914974  1.0000
  C   C53       1.0  0.651767798578953  0.7466359337246757  0.23432499167954862  1.0000
  C   C54       1.0  0.6642881055913549  0.6896821419550493  0.1783735207832258  1.0000
  C   C55       1.0  0.6934737848035535  0.6902874590859487  0.05712501495989649  1.0000
  C   C56       1.0  0.7053582525743106  0.6327378063299548  0.9884232602618249  1.0000
  C   C57       1.0  0.6855784030747984  0.1955468174666574  0.8341580525278891  1.0000
  C   C58       1.0  0.70899145597929  0.19578638598187148  0.9594929799774075  1.0000
  C   C59       1.0  0.7137012075494149  0.13601254548451785  0.03186573841381285  1.0000
  C   C60       1.0  0.7224446289214215  0.24842085819348192  0.026692491781620815  1.0000
  C   C61       1.0  0.6776362362393047  0.24792232711687975  0.7620342097977614  1.0000
  C   C62       1.0  0.6875083678642155  0.3034639228395112  0.826546210631604  1.0000
  C   C63       1.0  0.709593292026757  0.3042503978578024  0.9530481920906997  1.0000
  C   C64       1.0  0.7135309637676722  0.3643445162239535  0.023374254602642558  1.0000
  C   C65       1.0  0.3285872424227124  0.8030845382252655  0.16104581922190217  1.0000
  C   C66       1.0  0.29872482470265077  0.8065998095395239  0.04242760679793257  1.0000
  C   C67       1.0  0.2951164952419181  0.8671156405310628  0.9748529179678456  1.0000
  C   C68       1.0  0.281244434145166  0.7530838938048875  0.974554004179438  1.0000
  C   C69       1.0  0.3415414408889647  0.7438805970033776  0.21770534946882694  1.0000
  C   C70       1.0  0.3263818073493916  0.6915199425067606  0.14787381188946602  1.0000
  C   C71       1.0  0.3005002877769107  0.6975292313373987  0.02128255695286526  1.0000
  C   C72       1.0  0.2956594960002603  0.6404418370913905  0.9473753425209848  1.0000
  C   C73       1.0  0.327746608853309  0.19455607568568553  0.8250659408035902  1.0000
  C   C74       1.0  0.29815335570665563  0.19700031321838898  0.9407933692589746  1.0000
  C   C75       1.0  0.28373185756396363  0.13807584595623806  0.0054943988428528675  1.0000
  C   C76       1.0  0.2883697431348079  0.2552250043503644  0.004226805858418538  1.0000
  C   C77       1.0  0.34529362824152576  0.24981034372358205  0.7619866818405555  1.0000
  C   C78       1.0  0.33481645940345733  0.3040048969862866  0.8236521140819166  1.0000
  C   C79       1.0  0.3015572495963995  0.30928790881287294  0.9384370461456029  1.0000
  C   C80       1.0  0.2939449216782189  0.3690035040526044  0.009404551885540851  1.0000
  C   C81       1.0  0.8134429149010869  0.8056398143768934  0.32646429118286635  1.0000
  C   C82       1.0  0.7919400148521828  0.8021136220339908  0.45537676053876197  1.0000
  C   C83       1.0  0.7848701872383083  0.8602677245933789  0.5284062394198131  1.0000
  C   C84       1.0  0.7832745672498634  0.7448681976083918  0.5132131532623717  1.0000
  C   C85       1.0  0.8330661760034997  0.751669120303541  0.2657887656782281  1.0000
  C   C86       1.0  0.8165773683787523  0.6971508769477212  0.3192716336802381  1.0000
  C   C87       1.0  0.7940276916257752  0.6912308015349721  0.44701956553843264  1.0000
  C   C88       1.0  0.7953187454867162  0.634295648922622  0.5283382537470969  1.0000
  C   C89       1.0  0.8454454086189711  0.1974437781610655  0.6856091253345638  1.0000
  C   C90       1.0  0.8113239231675099  0.1930004445772557  0.5667338214306041  1.0000
  C   C91       1.0  0.7990640738298652  0.13009737097363938  0.5066019859353948  1.0000
  C   C92       1.0  0.7917955765432008  0.24910612737203608  0.49924994448727245  1.0000
  C   C93       1.0  0.8525697845465292  0.2543394999133526  0.7468856481128997  1.0000
  C   C94       1.0  0.8401879890640132  0.305945516168912  0.6734229073405086  1.0000
  C   C95       1.0  0.8072497994026269  0.3063926067435009  0.5547385774307002  1.0000
  C   C96       1.0  0.7975625937127103  0.36513046878883626  0.48541425356058493  1.0000
  C   C97       1.0  0.050799449855376  0.42403591694374937  0.060826374304986  1.0000
  C   C98       1.0  0.053312655765242786  0.4552764242463717  0.18109290103580325  1.0000
  C   C99       1.0  0.11701200042465629  0.46769231790520255  0.23979119859097833  1.0000
  C   C100      1.0  0.9983486394309491  0.4675070317571888  0.251690560475198  1.0000
  C   C101      1.0  0.9930685337214172  0.41284213600494984  0.0030130734209439453  1.0000
  C   C102      1.0  0.9399911157936301  0.42593234346024395  0.06676911272640247  1.0000
  C   C103      1.0  0.940453213344395  0.4520617414504525  0.19198756912452405  1.0000
  C   C104      1.0  0.8834312356275988  0.4604051400186992  0.26663541494629583  1.0000
  C   C105      1.0  0.06415483583952208  0.5756072171758319  0.9214811429329487  1.0000
  C   C106      1.0  0.0610562374265584  0.5571284133578336  0.7898185139250671  1.0000
  C   C107      1.0  0.11784016199130036  0.548511780429927  0.7089345047859255  1.0000
  C   C108      1.0  0.005529623629492645  0.5479778617079796  0.7273216199390312  1.0000
  C   C109      1.0  0.008654018356692321  0.5878636875273859  0.9852709087463551  1.0000
  C   C110      1.0  0.9503708909431372  0.5787160718033191  0.9245702064589378  1.0000
  C   C111      1.0  0.9506357572646416  0.5624737507974359  0.7899297944884691  1.0000
  C   C112      1.0  0.8894629711177172  0.5493283962623854  0.7220304763292461  1.0000
  C   C113      1.0  0.5563530637266901  0.4280084427754238  0.428886828037137  1.0000
  C   C114      1.0  0.555503725713249  0.4494358762398303  0.2954723325429095  1.0000
  C   C115      1.0  0.61548550800243  0.4513126455396856  0.22637925463297523  1.0000
  C   C116      1.0  0.5005213763015441  0.45782529138835837  0.22712125044384843  1.0000
  C   C117      1.0  0.49283274312343817  0.42085397796330215  0.48035201435937425  1.0000
  C   C118      1.0  0.4396256315996256  0.4250508094746886  0.40351004331405915  1.0000
  C   C119      1.0  0.4444776159277697  0.4478143061394607  0.27618552502803545  1.0000
  C   C120      1.0  0.38679526334993936  0.4615452219027135  0.20151403526984568  1.0000
  C   C121      1.0  0.5620315886251038  0.5791623242574088  0.5680119829873169  1.0000
  C   C122      1.0  0.5612742698851618  0.5493800302214039  0.6881224461297543  1.0000
  C   C123      1.0  0.6201992142516427  0.5409086400749632  0.7636362762733749  1.0000
  C   C124      1.0  0.5040925159631385  0.5378431315637792  0.7470240057220076  1.0000
  C   C125      1.0  0.5077705496658245  0.5935130309214669  0.5029960003492066  1.0000
  C   C126      1.0  0.4509584270649867  0.5798579859770029  0.5543102484469583  1.0000
  C   C127      1.0  0.450065382271414  0.5555383591406929  0.6862298697906773  1.0000
  C   C128      1.0  0.3884207778191697  0.5426042273662769  0.7525974341185873  1.0000
  O   O1        1.0  0.7461568843229189  0.9910838983507959  0.8911311543457985  1.0000
  O   O2        1.0  0.6166936743273536  0.981996959795916  0.8986980431168436  1.0000
  O   O3        1.0  0.6675438132784636  0.9344356792323852  0.7275102980656463  1.0000
  O   O4        1.0  0.3798480165439873  0.9913744570249589  0.8792788062299927  1.0000
  O   O5        1.0  0.33644529166341086  0.9406387499989831  0.7078798102614121  1.0000
  O   O6        1.0  0.7412998864308891  0.003283620786610378  0.1385239525841665  1.0000
  O   O7        1.0  0.619927144124726  0.01023119746201949  0.14297757013193604  1.0000
  O   O8        1.0  0.6819279017255117  0.09166241214706318  0.9771289265415114  1.0000
  O   O9        1.0  0.6772097834619853  0.9078973399129224  0.03732405753309324  1.0000
  O   O10       1.0  0.6616416515199862  0.06944797364444343  0.30137576711178743  1.0000
  O   O11       1.0  0.38114098375813027  0.02203033085322574  0.10765440392475394  1.0000
  O   O12       1.0  0.33325496719051667  0.07627158834891488  0.26635409049698044  1.0000
  O   O13       1.0  0.2442332648236057  0.0007263359534819269  0.6181571319843414  1.0000
  O   O14       1.0  0.11797938838587309  0.9895608965187119  0.6209065422231731  1.0000
  O   O15       1.0  0.16768110292259233  0.9238975513783233  0.7582316641248177  1.0000
  O   O16       1.0  0.8844665554516542  0.9827519711592423  0.6300684465709715  1.0000
  O   O17       1.0  0.8442665807876581  0.9260860554630356  0.7962510905569662  1.0000
  O   O18       1.0  0.24020091612728492  0.010529242664320692  0.36608496858137224  1.0000
  O   O19       1.0  0.11743823770403361  0.01612272665542049  0.3669092112709278  1.0000
  O   O20       1.0  0.18399774251876802  0.09052393732429895  0.5312998217807088  1.0000
  O   O21       1.0  0.18065672102703526  0.9152483329717023  0.47134480404984636  1.0000
  O   O22       1.0  0.15743293595243615  0.07602435626734563  0.21068739951529533  1.0000
  O   O23       1.0  0.8785497208054257  0.00028281843525356984  0.3681416158571625  1.0000
  O   O24       1.0  0.8379222915708521  0.06923686852745421  0.22189263860637912  1.0000
  O   O25       1.0  0.24804434071378953  0.8735543325891821  0.6078547306518708  1.0000
  O   O26       1.0  0.24309223695296125  0.6320345125940975  0.5965823223693284  1.0000
  O   O27       1.0  0.18158577695696207  0.5891607610241256  0.44846304705378265  1.0000
  O   O28       1.0  0.24845254923951776  0.9902918867983861  0.8740073320425038  1.0000
  O   O29       1.0  0.2713169278772321  0.8698276526966344  0.8611626870382938  1.0000
  O   O30       1.0  0.23129613905525062  0.13747260464367478  0.3666873908092646  1.0000
  O   O31       1.0  0.23772817266329443  0.367351342837466  0.3620367592500404  1.0000
  O   O32       1.0  0.16437065638909662  0.41376053050380535  0.4867911199253297  1.0000
  O   O33       1.0  0.24766862365260406  0.009108172356986032  0.11826113309397135  1.0000
  O   O34       1.0  0.25061169320191085  0.13690294361375785  0.1078309116206233  1.0000
  O   O35       1.0  0.7412764594039384  0.8591853067900567  0.8967262311597226  1.0000
  O   O36       1.0  0.7456364330023776  0.630673220163295  0.895289202762312  1.0000
  O   O37       1.0  0.6716757866579611  0.5869528632216725  0.02308082970668925  1.0000
  O   O38       1.0  0.7605761896039022  0.9902682065256007  0.643220392764508  1.0000
  O   O39       1.0  0.762905457936194  0.860041396329446  0.6436625037574779  1.0000
  O   O40       1.0  0.7414212094238932  0.13421809178469102  0.13888590455766991  1.0000
  O   O41       1.0  0.7448037794874546  0.36842994610178903  0.12678472989060427  1.0000
  O   O42       1.0  0.6851821868408079  0.41042632830369  0.9644959018152535  1.0000
  O   O43       1.0  0.7544220310574705  0.011562298487224103  0.39299709673729216  1.0000
  O   O44       1.0  0.7703943983813807  0.1304037450635212  0.40260831460915425  1.0000
  O   O45       1.0  0.31234511418813093  0.9142263914607551  0.04099201307473189  1.0000
  O   O46       1.0  0.26288399897335246  0.6397120137828243  0.8446592028944867  1.0000
  O   O47       1.0  0.329065443896414  0.5936454887580251  0.9828103605593292  1.0000
  O   O48       1.0  0.30783291057634854  0.09007639274464134  0.9516340261405036  1.0000
  O   O49       1.0  0.25494731551231126  0.3690719579536457  0.1017959866332147  1.0000
  O   O50       1.0  0.3224627112102684  0.4168442097172669  0.9592547268584336  1.0000
  O   O51       1.0  0.8032400058505106  0.9087206680661951  0.46971593949295654  1.0000
  O   O52       1.0  0.7656762876262067  0.635426972318237  0.6394835748048027  1.0000
  O   O53       1.0  0.8216849303849073  0.5897889429085194  0.4731778452972232  1.0000
  O   O54       1.0  0.8279463188777895  0.08206570245866761  0.5584857141582993  1.0000
  O   O55       1.0  0.7654932774681124  0.3625739905559169  0.37742104198997606  1.0000
  O   O56       1.0  0.8244293222822364  0.4105051905815093  0.5383496611593586  1.0000
  O   O57       1.0  0.24902588646378604  0.4980154479858872  0.36946229664736635  1.0000
  O   O58       1.0  0.11863587065144846  0.5002953258660138  0.3408681733607212  1.0000
  O   O59       1.0  0.16249084192573843  0.438964963434491  0.19125611369788587  1.0000
  O   O60       1.0  0.8857079767258402  0.49082051786382286  0.3718804079519085  1.0000
  O   O61       1.0  0.8372101040037869  0.42922190777575703  0.2282076477691927  1.0000
  O   O62       1.0  0.2416058006598566  0.5026113902979349  0.6132900920677902  1.0000
  O   O63       1.0  0.11544609132348925  0.5182512681956951  0.5997680300601756  1.0000
  O   O64       1.0  0.16536956656894197  0.5784178372286305  0.7450310430123086  1.0000
  O   O65       1.0  0.886912249465475  0.5127266295005192  0.6266784115294052  1.0000
  O   O66       1.0  0.8418550150264472  0.5734194944136103  0.7735734431832862  1.0000
  O   O67       1.0  0.7385175118053315  0.4963074509415605  0.13741570272116346  1.0000
  O   O68       1.0  0.6168504501237975  0.47941052447050003  0.12042973355819968  1.0000
  O   O69       1.0  0.6643381474325616  0.42741925221060106  0.283796838155506  1.0000
  O   O70       1.0  0.3867192291854003  0.5001530692121363  0.10856041818425974  1.0000
  O   O71       1.0  0.33825817472360126  0.43293156037995423  0.24723203626387083  1.0000
  O   O72       1.0  0.7466005369536975  0.5070510914704642  0.8920795352345604  1.0000
  O   O73       1.0  0.614712939198223  0.509941226768249  0.8698753041060687  1.0000
  O   O74       1.0  0.6710650329190881  0.5643173069059014  0.7207367209525146  1.0000
  O   O75       1.0  0.3893084658628608  0.5085222763279893  0.8567996318420146  1.0000
  O   O76       1.0  0.33956912101573045  0.5672028130594265  0.7052968688869873  1.0000
  O   O77       1.0  0.7633070563014388  0.4919764614856996  0.3783530806175664  1.0000
  O   O78       1.0  0.7616706201573263  0.5062601891280457  0.6371019436884499  1.0000
  O   O79       1.0  0.261625899105337  0.5009883334511479  0.10954497210873775  1.0000
  O   O80       1.0  0.25670174774635557  0.5054712373603767  0.8579054371212523  1.0000
