data_image0
_chemical_formula_structural       Al16H80C128O80
_chemical_formula_sum              "Al16 H80 C128 O80"
_cell_length_a       21.63717
_cell_length_b       21.63649
_cell_length_c       10.288049999999998
_cell_angle_alpha    90.00093999999999
_cell_angle_beta     89.99906
_cell_angle_gamma    90.00852000000002

_space_group_name_H-M_alt    "P 1"
_space_group_IT_number       1

loop_
  _space_group_symop_operation_xyz
  'x, y, z'

loop_
  _atom_site_type_symbol
  _atom_site_label
  _atom_site_symmetry_multiplicity
  _atom_site_fract_x
  _atom_site_fract_y
  _atom_site_fract_z
  _atom_site_occupancy
  Al  Al1       1.0  0.6765261474481973  0.9964987491910889  0.01098298706075581  1.0000
  Al  Al2       1.0  0.3145196909632912  0.0054811239844763104  0.9959928771719524  1.0000
  Al  Al3       1.0  0.745797323196775  0.9298353207581401  0.7544179316866434  1.0000
  Al  Al4       1.0  0.24776047580547347  0.9352340566258585  0.7459641323735173  1.0000
  Al  Al5       1.0  0.7452215543000045  0.07405825887951642  0.2523674875898479  1.0000
  Al  Al6       1.0  0.2439164122168533  0.07236926111759573  0.242159113794205  1.0000
  Al  Al7       1.0  0.17473672466446047  0.008371798661913057  0.4984310040658838  1.0000
  Al  Al8       1.0  0.8175306413028409  0.9996460933593514  0.5049287222941184  1.0000
  Al  Al9       1.0  0.25429262569191513  0.5714304737671452  0.735028832678213  1.0000
  Al  Al10      1.0  0.1829642238955087  0.504209246515775  0.48375647876316563  1.0000
  Al  Al11      1.0  0.25346071142375987  0.4325777132768053  0.23716325354723572  1.0000
  Al  Al12      1.0  0.7532892927822952  0.56913662312517  0.7528295150280543  1.0000
  Al  Al13      1.0  0.6874526522113568  0.4977170149221764  0.9997459819887439  1.0000
  Al  Al14      1.0  0.7545870900991241  0.4259638000137561  0.2439385219429724  1.0000
  Al  Al15      1.0  0.32144286255195503  0.506513176563577  0.996672347042519  1.0000
  Al  Al16      1.0  0.8217607993670374  0.5018583031060189  0.49233062352565604  1.0000
  H   H1        1.0  0.7485255630599573  0.4782065306026045  0.6745782458160408  1.0000
  H   H2        1.0  0.7261738373416893  0.514590868236228  0.4003373672472842  1.0000
  H   H3        1.0  0.212004307762328  0.020904167529574944  0.8914153821635857  1.0000
  H   H4        1.0  0.283656803263316  0.4938495124019016  0.573403164991188  1.0000
  H   H5        1.0  0.25840092720383373  0.5301021299785013  0.31942954115545813  1.0000
  H   H6        1.0  0.7877763040510906  0.49334443315814436  0.8917107957746023  1.0000
  H   H7        1.0  0.7687265988236234  0.5255442472963036  0.13193440645849208  1.0000
  H   H8        1.0  0.2557295213138927  0.467493445716835  0.8278628692796127  1.0000
  H   H9        1.0  0.7166083959717299  0.9995259552934068  0.43260629868612277  1.0000
  H   H10       1.0  0.7442954131374651  0.976038979654115  0.19162775555431433  1.0000
  H   H11       1.0  0.7786473256311213  0.002882881586759892  0.9043402522833641  1.0000
  H   H12       1.0  0.7553086961486052  0.02320643189455062  0.6788040145488619  1.0000
  H   H13       1.0  0.23750888319776278  0.9669150624166207  0.13976829334878613  1.0000
  H   H14       1.0  0.2522429180855081  0.04332951517838797  0.659815255741063  1.0000
  H   H15       1.0  0.27382147537412715  0.01041752920867589  0.4205034084364147  1.0000
  H   H16       1.0  0.22135161445993423  0.4940366230204404  0.05727269892336955  1.0000
  H   H17       1.0  0.5963750599192504  0.9306187795488244  0.5516354762590894  1.0000
  H   H18       1.0  0.39488922858155107  0.9323567637676002  0.5223501102197443  1.0000
  H   H19       1.0  0.4881442647377529  0.9764570137802904  0.889245406317239  1.0000
  H   H20       1.0  0.49650781050840426  0.9145346080105086  0.41912431424423846  1.0000
  H   H21       1.0  0.5976713949410729  0.07128907428926362  0.493867689345151  1.0000
  H   H22       1.0  0.4025719451540527  0.10889966638988897  0.4550607764600615  1.0000
  H   H23       1.0  0.49289152735517333  0.0067656577639903384  0.15474451042019083  1.0000
  H   H24       1.0  0.4939826214644783  0.10748599137044408  0.5983096710899103  1.0000
  H   H25       1.0  0.1088759977767258  0.9360173147349667  0.9634665240417347  1.0000
  H   H26       1.0  0.9070190602355659  0.9149619982114114  0.9815964038586288  1.0000
  H   H27       1.0  0.9962494556951026  0.9743316169611705  0.6364834785758472  1.0000
  H   H28       1.0  0.011584368811907275  0.9049223060254922  0.09717034328847911  1.0000
  H   H29       1.0  0.08574553896841418  0.10731973907280062  0.020890878257574658  1.0000
  H   H30       1.0  0.8937853930531455  0.06641881321631041  0.006767403931623295  1.0000
  H   H31       1.0  0.9961804683520039  0.02079282639576664  0.35141524982605743  1.0000
  H   H32       1.0  0.9865172474600525  0.09720020392816774  0.9062903662510644  1.0000
  H   H33       1.0  0.16751938904170557  0.8578659791440315  0.276803886136478  1.0000
  H   H34       1.0  0.16776280280544972  0.6596688247211399  0.2635764280626328  1.0000
  H   H35       1.0  0.23786988239875903  0.7574415058883673  0.6049748826721298  1.0000
  H   H36       1.0  0.14903938334756175  0.7574301447019859  0.15850969041158128  1.0000
  H   H37       1.0  0.1585426291826108  0.16168720348994625  0.7265440683133924  1.0000
  H   H38       1.0  0.14869898240226248  0.35722697791763863  0.7018182504889787  1.0000
  H   H39       1.0  0.2163521651676141  0.25512082908361666  0.37814419652382864  1.0000
  H   H40       1.0  0.12937335424745874  0.262034223629491  0.8189452532080842  1.0000
  H   H41       1.0  0.6560574855844301  0.8417430667649647  0.21814953568499326  1.0000
  H   H42       1.0  0.6684542503935179  0.6441169108925388  0.21276918469380476  1.0000
  H   H43       1.0  0.7466557373118384  0.7530807230042564  0.905018082387405  1.0000
  H   H44       1.0  0.6398211883739288  0.7450304033201495  0.33273505094952394  1.0000
  H   H45       1.0  0.6726446447450958  0.14312046184681923  0.7634869885074316  1.0000
  H   H46       1.0  0.6739970158787649  0.3441994281289742  0.7775012691571953  1.0000
  H   H47       1.0  0.7220625095986343  0.25217867703451813  0.11598338755363023  1.0000
  H   H48       1.0  0.6493877874530717  0.23733009979213157  0.6563937511790252  1.0000
  H   H49       1.0  0.3378015146102195  0.85704354246605  0.18814177618896796  1.0000
  H   H50       1.0  0.32237494004892103  0.6594027721941129  0.23096962695938397  1.0000
  H   H51       1.0  0.2756542803585348  0.7447545811352744  0.8728229968183088  1.0000
  H   H52       1.0  0.3493963938036026  0.7561148845935229  0.32725735400839656  1.0000
  H   H53       1.0  0.31234527565700243  0.14968178077594488  0.7774109313380507  1.0000
  H   H54       1.0  0.340165296957864  0.34564815458540415  0.7640215504508008  1.0000
  H   H55       1.0  0.27556283279912347  0.26002921526802025  0.11586550418405811  1.0000
  H   H56       1.0  0.3357995616237413  0.25265289964387627  0.640407290183573  1.0000
  H   H57       1.0  0.8386367820848813  0.8541430017903037  0.2724107455498592  1.0000
  H   H58       1.0  0.8320659871165792  0.6533932563215867  0.26297546189298315  1.0000
  H   H59       1.0  0.7835379882561666  0.744753056104225  0.6098703390524501  1.0000
  H   H60       1.0  0.8691035712827797  0.7567792734235687  0.17356198020815844  1.0000
  H   H61       1.0  0.8475085467629212  0.14887709516231754  0.7127514467730434  1.0000
  H   H62       1.0  0.8456119512467095  0.3504454587067556  0.7050715443599268  1.0000
  H   H63       1.0  0.7628007790463044  0.24909792728560942  0.39003621979674485  1.0000
  H   H64       1.0  0.8745934454541207  0.2554509971825028  0.8169210182942176  1.0000
  H   H65       1.0  0.10231279818336726  0.4066199556478131  0.03150540968280963  1.0000
  H   H66       1.0  0.902982212647727  0.38581235947441456  0.06438283447089177  1.0000
  H   H67       1.0  0.0017761656583041852  0.4867375366213898  0.3629811967287283  1.0000
  H   H68       1.0  0.009278249261610139  0.3774320916653683  0.921398486841636  1.0000
  H   H69       1.0  0.10415236241571708  0.5779442046741416  0.9539297410725223  1.0000
  H   H70       1.0  0.9063164359546417  0.5776437772835515  0.9744073796975968  1.0000
  H   H71       1.0  0.00011464608228881323  0.5278678053017132  0.6219094883599801  1.0000
  H   H72       1.0  0.9999045486098509  0.6034368043101106  0.08104766405921415  1.0000
  H   H73       1.0  0.6016600975460409  0.3997438403187175  0.44641659996170335  1.0000
  H   H74       1.0  0.4043443219930906  0.41346505058547944  0.46114413239406676  1.0000
  H   H75       1.0  0.5021484917860723  0.47644924578640857  0.12934214358970963  1.0000
  H   H76       1.0  0.5089406489549988  0.3703147386868767  0.5534544011287231  1.0000
  H   H77       1.0  0.6102511842949383  0.5685743201022185  0.5244979983040701  1.0000
  H   H78       1.0  0.4132747542023842  0.5968653013952439  0.5232955274759413  1.0000
  H   H79       1.0  0.5033396542792579  0.5182686807313222  0.8505723701143557  1.0000
  H   H80       1.0  0.5155754450667805  0.607534917147752  0.4033155322064597  1.0000
  C   C1        1.0  0.5483604047406779  0.9361805199743888  0.5958977290788705  1.0000
  C   C2        1.0  0.5474124515816696  0.9524427753706329  0.727813783177095  1.0000
  C   C3        1.0  0.6114957066551393  0.9599995569580336  0.7875278329888019  1.0000
  C   C4        1.0  0.49116025146408754  0.9689534686849047  0.7807099170553766  1.0000
  C   C5        1.0  0.4963923776306185  0.926100452234685  0.5189700634655627  1.0000
  C   C6        1.0  0.4387491133548656  0.9386666342049  0.5696778623332194  1.0000
  C   C7        1.0  0.43773410213184916  0.9622865715088428  0.7018858016770257  1.0000
  C   C8        1.0  0.3787656887566701  0.9683082977166743  0.7670513141094523  1.0000
  C   C9        1.0  0.5536549087049354  0.07141349499039489  0.4372033039507481  1.0000
  C   C10       1.0  0.5537664273524877  0.043282105319134886  0.31682890935378527  1.0000
  C   C11       1.0  0.6113907708742305  0.035364372762873714  0.23820095165357008  1.0000
  C   C12       1.0  0.4979480118854329  0.031032719315655967  0.2520343214406824  1.0000
  C   C13       1.0  0.4978886044944173  0.08922262374345609  0.4962328012960599  1.0000
  C   C14       1.0  0.4426284826908185  0.0835041093925451  0.4241950963666076  1.0000
  C   C15       1.0  0.4435336080011595  0.05369507236079855  0.3044136246269056  1.0000
  C   C16       1.0  0.3811288708030971  0.04783771576774427  0.229005778610529  1.0000
  C   C17       1.0  0.05998272781502443  0.9338311898487255  0.9282765521717077  1.0000
  C   C18       1.0  0.05457580275127519  0.9554983080689653  0.8024868077256487  1.0000
  C   C19       1.0  0.11666034037066766  0.9653737805931872  0.7329813941446066  1.0000
  C   C20       1.0  0.9981329572006332  0.9628660610037085  0.7414595022431747  1.0000
  C   C21       1.0  0.008402714366760877  0.9149447063305104  0.9940067838659538  1.0000
  C   C22       1.0  0.9502690245609993  0.9241202724307929  0.9324523775236025  1.0000
  C   C23       1.0  0.9436232945953572  0.9466681678144855  0.8060468448570641  1.0000
  C   C24       1.0  0.8807141996342882  0.9562360020375653  0.7453529563001418  1.0000
  C   C25       1.0  0.047513785988697745  0.08335124999569318  0.0659337104876582  1.0000
  C   C26       1.0  0.047081956376275776  0.060228399974581445  0.19423466551365723  1.0000
  C   C27       1.0  0.1123027927782832  0.048654116513350595  0.2673816409076846  1.0000
  C   C28       1.0  0.9951061451971486  0.034918554117068915  0.2523003349224147  1.0000
  C   C29       1.0  0.9904553141273433  0.08107894315205406  0.004641603609318704  1.0000
  C   C30       1.0  0.9349548490100121  0.06568862600426131  0.06627064022662067  1.0000
  C   C31       1.0  0.9374804447911317  0.04646244322964616  0.19925856119980864  1.0000
  C   C32       1.0  0.877233958571944  0.04346644120837888  0.2779668771797972  1.0000
  C   C33       1.0  0.17728562049374663  0.8110265101106885  0.3203437571635968  1.0000
  C   C34       1.0  0.19855396954844845  0.8129695135508989  0.4496624862092417  1.0000
  C   C35       1.0  0.20567290787488934  0.8721869198544071  0.5127404864303375  1.0000
  C   C36       1.0  0.21946334100544743  0.7566672156142891  0.5106193876792747  1.0000
  C   C37       1.0  0.1685084334761484  0.7563288762756575  0.25608501034783343  1.0000
  C   C38       1.0  0.17820235717100188  0.6998315028973731  0.31776603154920563  1.0000
  C   C39       1.0  0.2042841210239905  0.6989129741947365  0.445953526784446  1.0000
  C   C40       1.0  0.2163601482472537  0.6384311195233835  0.5102494818175201  1.0000
  C   C41       1.0  0.1640851268262572  0.20358949280747415  0.667311243806902  1.0000
  C   C42       1.0  0.1892371312431585  0.20091524310813072  0.5367351297365457  1.0000
  C   C43       1.0  0.2045702667765687  0.1407562211015269  0.4742584592136594  1.0000
  C   C44       1.0  0.19702853701755932  0.25657706022589  0.4723611064592256  1.0000
  C   C45       1.0  0.1511850052394591  0.25944479068243914  0.7286436527833176  1.0000
  C   C46       1.0  0.16108195552898963  0.3136976464626526  0.6546255346554959  1.0000
  C   C47       1.0  0.180836669559991  0.3130017248127838  0.5275133948085922  1.0000
  C   C48       1.0  0.2034609490042743  0.3704788868426869  0.4585862268622039  1.0000
  C   C49       1.0  0.6761442693026658  0.7988542764279981  0.17546816165219087  1.0000
  C   C50       1.0  0.7100997426120109  0.8029783198432281  0.0601761159954132  1.0000
  C   C51       1.0  0.7065966108760511  0.8620452987899465  0.9868392603780386  1.0000
  C   C52       1.0  0.7284441338409432  0.7479518955075621  0.0025899245023002226  1.0000
  C   C53       1.0  0.6648725540705935  0.7411920757398957  0.24026504543283  1.0000
  C   C54       1.0  0.6822650030802488  0.6866623932100094  0.1804308474880626  1.0000
  C   C55       1.0  0.7136005043253476  0.6935057238491461  0.056429337936366654  1.0000
  C   C56       1.0  0.7218977029078713  0.6319985751882907  0.9907518259284426  1.0000
  C   C57       1.0  0.6815311037319329  0.1859445334392836  0.820766155128763  1.0000
  C   C58       1.0  0.7022987978613362  0.18708683997246398  0.9503193542635551  1.0000
  C   C59       1.0  0.7056653826446749  0.12736624699584034  0.022096225238133392  1.0000
  C   C60       1.0  0.7116176695990626  0.24286559691915827  0.013812310402675183  1.0000
  C   C61       1.0  0.6655074668502903  0.24052718356299038  0.757247675905211  1.0000
  C   C62       1.0  0.6786502798524893  0.2971223263742519  0.817794294571298  1.0000
  C   C63       1.0  0.7030979995686629  0.30067311923704726  0.9475833868054289  1.0000
  C   C64       1.0  0.712341700326292  0.36253441908949613  0.006734715521274346  1.0000
  C   C65       1.0  0.324463432949417  0.8103280057914671  0.15530890308950743  1.0000
  C   C66       1.0  0.30452793104093157  0.8061677543329072  0.026262474431278368  1.0000
  C   C67       1.0  0.2915812995518103  0.8661792718116167  0.9619814457223144  1.0000
  C   C68       1.0  0.2952604167117133  0.7500594180674436  0.9704160674459018  1.0000
  C   C69       1.0  0.3356231946336174  0.7563161396022694  0.22623875084456155  1.0000
  C   C70       1.0  0.32297715573553937  0.6997887551082521  0.17068223137257024  1.0000
  C   C71       1.0  0.3065228518061554  0.6964387184575583  0.03786951075323798  1.0000
  C   C72       1.0  0.2988537914161303  0.6355416762747967  0.9736885845904588  1.0000
  C   C73       1.0  0.312352826615927  0.19441538885158538  0.817663514685862  1.0000
  C   C74       1.0  0.29407453372865516  0.19811013025717092  0.9510148631308258  1.0000
  C   C75       1.0  0.28458822220769775  0.13815808881932404  0.019993340823125465  1.0000
  C   C76       1.0  0.2912771063272969  0.25441044233565147  0.015350834224415914  1.0000
  C   C77       1.0  0.3260990119160257  0.24867127041665643  0.746770295835226  1.0000
  C   C78       1.0  0.3242400925642254  0.30532220798121124  0.8130208671469351  1.0000
  C   C79       1.0  0.3105847940050095  0.30798613750349024  0.9483231421528512  1.0000
  C   C80       1.0  0.2983107318475768  0.36796440157788346  0.010767096780226679  1.0000
  C   C81       1.0  0.8259196874209753  0.8102393326745398  0.31971246940724374  1.0000
  C   C82       1.0  0.7975090619009748  0.8089113006293991  0.4444935202716431  1.0000
  C   C83       1.0  0.7910745660511618  0.8681472043266895  0.5154445848753769  1.0000
  C   C84       1.0  0.7946505692979441  0.7514888760439926  0.5088945253385224  1.0000
  C   C85       1.0  0.8439804872474683  0.7546761416675366  0.2654151769028008  1.0000
  C   C86       1.0  0.8272710098313927  0.6973720354444346  0.31822607402579484  1.0000
  C   C87       1.0  0.8068679834881124  0.6958610447310177  0.4439945957911651  1.0000
  C   C88       1.0  0.7997240724785121  0.6376731606601731  0.5132170820924231  1.0000
  C   C89       1.0  0.8320312591627628  0.1926495378020696  0.6730325806993005  1.0000
  C   C90       1.0  0.7982105810679375  0.1936203139278618  0.5580046890853911  1.0000
  C   C91       1.0  0.7829441088701833  0.13464244214805013  0.4893938512502364  1.0000
  C   C92       1.0  0.7845228239476624  0.24874724058810563  0.4922564957754793  1.0000
  C   C93       1.0  0.8495866884663442  0.24896406153721942  0.727524701183831  1.0000
  C   C94       1.0  0.8324985718796227  0.30511583849188734  0.6728744195316897  1.0000
  C   C95       1.0  0.8035826565828138  0.30293736724280435  0.5479593238288253  1.0000
  C   C96       1.0  0.797912060145703  0.36306198309685733  0.47540312219674846  1.0000
  C   C97       1.0  0.059126692454298  0.41542014208379796  0.0800574132339614  1.0000
  C   C98       1.0  0.06049851054457937  0.4451632329397913  0.20550512298919485  1.0000
  C   C99       1.0  0.1198250866261123  0.45896964425264086  0.26201680597639504  1.0000
  C   C100      1.0  0.004096041646694193  0.45751021363009875  0.2747820229062645  1.0000
  C   C101      1.0  0.001996530509892347  0.3975287687514925  0.020115405743138293  1.0000
  C   C102      1.0  0.9488329475828594  0.40129720601669056  0.09314327790571465  1.0000
  C   C103      1.0  0.9476772766315705  0.4344448872143465  0.2144079694979744  1.0000
  C   C104      1.0  0.8885985071086172  0.4490180110898078  0.2731625226117982  1.0000
  C   C105      1.0  0.059762683339046004  0.5726864755317055  0.9146864879673514  1.0000
  C   C106      1.0  0.06054227822232235  0.5515504108619087  0.78789930571697  1.0000
  C   C107      1.0  0.1213613979716339  0.5450072111448028  0.7236448775038583  1.0000
  C   C108      1.0  0.005361416338614214  0.5446902435051117  0.7185661716252845  1.0000
  C   C109      1.0  0.005022426424934891  0.5836428832782107  0.9829722846138553  1.0000
  C   C110      1.0  0.9488569837420209  0.5716126835704042  0.9193749002527681  1.0000
  C   C111      1.0  0.947638061100454  0.5505875796240157  0.7878505977499466  1.0000
  C   C112      1.0  0.8836393485141517  0.537535512437798  0.7259406021558922  1.0000
  C   C113      1.0  0.559998522482427  0.41035651043507204  0.4032095451632111  1.0000
  C   C114      1.0  0.5623111139896851  0.44053397208975426  0.2835146700088912  1.0000
  C   C115      1.0  0.6238755973211776  0.45047148575041235  0.2233266188070945  1.0000
  C   C116      1.0  0.5067824004316585  0.4603689147268841  0.2284267563466789  1.0000
  C   C117      1.0  0.505389494441802  0.40163277390687224  0.4690060887435954  1.0000
  C   C118      1.0  0.44883975004200205  0.42301404699293566  0.4187944324881318  1.0000
  C   C119      1.0  0.4494642649798046  0.44878631101648286  0.29534609579247095  1.0000
  C   C120      1.0  0.3880003613259963  0.45645828181879655  0.22511513849789616  1.0000
  C   C121      1.0  0.5646096174288625  0.5689536034655776  0.5660394779931284  1.0000
  C   C122      1.0  0.5634846729387363  0.5504849408787391  0.6947479096547511  1.0000
  C   C123      1.0  0.6225035402326535  0.5470353288447136  0.7687845687111308  1.0000
  C   C124      1.0  0.5075304098687237  0.5411964478638626  0.7573568724974031  1.0000
  C   C125      1.0  0.5111649046444329  0.5878335496341794  0.49891498402334317  1.0000
  C   C126      1.0  0.45382470696895205  0.5828562634918291  0.5674693388514989  1.0000
  C   C127      1.0  0.45133645606084716  0.5545781040573585  0.6901449878170127  1.0000
  C   C128      1.0  0.3913029787387278  0.5419728752912282  0.7577958478135434  1.0000
  O   O1        1.0  0.7376110655707929  0.9895403659631029  0.8785530477041293  1.0000
  O   O2        1.0  0.6120689428151882  0.9897055098100779  0.8945706351035245  1.0000
  O   O3        1.0  0.6545725494630024  0.9326661152392415  0.7327056810599343  1.0000
  O   O4        1.0  0.3792092819466328  0.9985243392299622  0.8757419795223277  1.0000
  O   O5        1.0  0.33316187459074065  0.9363774734189705  0.7191555291810537  1.0000
  O   O6        1.0  0.7435312021328339  0.0075776851127388216  0.1261919100655022  1.0000
  O   O7        1.0  0.6133652734023941  0.002312283275137095  0.13577379390418198  1.0000
  O   O8        1.0  0.6756308028415826  0.07990121177366631  0.9826310450202547  1.0000
  O   O9        1.0  0.6774978363439597  0.9076703516412271  0.03454252264478094  1.0000
  O   O10       1.0  0.6564961405417159  0.06785529764889159  0.2767974903666268  1.0000
  O   O11       1.0  0.3786404159323678  0.010410668083663113  0.13506266400085057  1.0000
  O   O12       1.0  0.3350976618408237  0.07828340476541527  0.2701778044185289  1.0000
  O   O13       1.0  0.24036319017111107  0.004214359025733305  0.6186636934805825  1.0000
  O   O14       1.0  0.11259929694393861  0.002411132397816873  0.6348138618841881  1.0000
  O   O15       1.0  0.16139726024098666  0.9294528340030511  0.7678050973824813  1.0000
  O   O16       1.0  0.8800711742399967  0.9828149071022662  0.633818628579261  1.0000
  O   O17       1.0  0.8346185251504337  0.9290304629770989  0.8070534845995602  1.0000
  O   O18       1.0  0.23753724139700075  0.008656776198623588  0.36690557890133296  1.0000
  O   O19       1.0  0.10977133838218393  0.02062253473454231  0.3752726611008913  1.0000
  O   O20       1.0  0.17708093680719122  0.0929122385646706  0.523450483954616  1.0000
  O   O21       1.0  0.17471739692916569  0.9194379698288906  0.46841144738768764  1.0000
  O   O22       1.0  0.15791306325237167  0.07500499517915626  0.21284578618779168  1.0000
  O   O23       1.0  0.8785236948043125  0.020231130976426898  0.3872220314901375  1.0000
  O   O24       1.0  0.8325663486014293  0.07248155740743667  0.23153777349848254  1.0000
  O   O25       1.0  0.23840293239618057  0.8733123165270287  0.6157472195124277  1.0000
  O   O26       1.0  0.24628560964493326  0.635957137901762  0.6166242282752572  1.0000
  O   O27       1.0  0.19035080695926035  0.5934780013469446  0.44820255842856005  1.0000
  O   O28       1.0  0.2489824947926  0.9969134827090844  0.8785825537815765  1.0000
  O   O29       1.0  0.2574693422700991  0.8668402731136757  0.8636646879040484  1.0000
  O   O30       1.0  0.24172684823160742  0.14031557083765472  0.3793024996039271  1.0000
  O   O31       1.0  0.24212612406006462  0.3671385529256806  0.36584836300493595  1.0000
  O   O32       1.0  0.17913685258491757  0.4193297735796887  0.4987653268968309  1.0000
  O   O33       1.0  0.25308223549520636  0.0092164005652398  0.1158821545697042  1.0000
  O   O34       1.0  0.25077529113961977  0.1351274097949392  0.12039721136010674  1.0000
  O   O35       1.0  0.7375135052220964  0.866146491266441  0.8782779984964794  1.0000
  O   O36       1.0  0.7500324746902829  0.6321524812962539  0.8823618375146906  1.0000
  O   O37       1.0  0.6931203211167511  0.5862068850932853  0.03814268594200129  1.0000
  O   O38       1.0  0.7560687365526971  0.9876957431110868  0.6290683124344957  1.0000
  O   O39       1.0  0.7639183288701794  0.8663936451905576  0.6291890797325099  1.0000
  O   O40       1.0  0.7401328843491268  0.13208007400063848  0.1274502894477451  1.0000
  O   O41       1.0  0.7440063546154739  0.3627046129201227  0.11272488569866043  1.0000
  O   O42       1.0  0.6836608865284622  0.4103419209867969  0.9627298149470044  1.0000
  O   O43       1.0  0.7519613759254767  0.008602999718168414  0.3809830163203751  1.0000
  O   O44       1.0  0.7519007203003137  0.13855684201644786  0.38352068575306897  1.0000
  O   O45       1.0  0.3145355932567902  0.9143194727265509  0.0264262275235022  1.0000
  O   O46       1.0  0.27152761957834987  0.6352367949029164  0.8645839194399123  1.0000
  O   O47       1.0  0.32081292907056547  0.5879832489947302  0.032213405853314274  1.0000
  O   O48       1.0  0.3137457653696617  0.09141050922201051  0.9724770479043663  1.0000
  O   O49       1.0  0.2671981273926304  0.3705589230218739  0.11699181869488558  1.0000
  O   O50       1.0  0.3251212446791542  0.416508275304385  0.9606680539713377  1.0000
  O   O51       1.0  0.8163777020973744  0.913660856090226  0.46229481109442166  1.0000
  O   O52       1.0  0.7702443847882167  0.6373861255545037  0.6217007189624191  1.0000
  O   O53       1.0  0.8276077181455895  0.5890976149703603  0.4704529644881734  1.0000
  O   O54       1.0  0.8039393013865185  0.08626502873632347  0.5391685782527113  1.0000
  O   O55       1.0  0.7657337160080837  0.36293430454041536  0.3722648714800858  1.0000
  O   O56       1.0  0.8213138009269151  0.41131353640089324  0.5353042074525403  1.0000
  O   O57       1.0  0.24993897285021657  0.49083747497223174  0.3656130025624176  1.0000
  O   O58       1.0  0.12357220002297814  0.5021956838597865  0.34611980608164894  1.0000
  O   O59       1.0  0.16577930146487999  0.4290541290892911  0.21996032393009446  1.0000
  O   O60       1.0  0.8887938618056237  0.4875109404325181  0.3691060512946527  1.0000
  O   O61       1.0  0.8416585687384038  0.4235492769579226  0.2216978339543275  1.0000
  O   O62       1.0  0.2450590085578163  0.5123050519960982  0.6086804945237694  1.0000
  O   O63       1.0  0.12516230200953252  0.514658613259742  0.6154011111633276  1.0000
  O   O64       1.0  0.1642337911902581  0.574802673307335  0.7738458475748623  1.0000
  O   O65       1.0  0.8822578591898881  0.503089624389791  0.6280270422226594  1.0000
  O   O66       1.0  0.8392910024977606  0.5664295031368708  0.7784045938885584  1.0000
  O   O67       1.0  0.7511507444656793  0.48630078535626314  0.1136693338693648  1.0000
  O   O68       1.0  0.6276253153985057  0.49155747586473353  0.13411451542044658  1.0000
  O   O69       1.0  0.6688754632525473  0.4154471030592049  0.27222709461498734  1.0000
  O   O70       1.0  0.3887732408251015  0.4933947426458469  0.12234582941750297  1.0000
  O   O71       1.0  0.34106838435242826  0.42857628197194425  0.27012420533997195  1.0000
  O   O72       1.0  0.7457935708452657  0.49998616787454264  0.8641286086666113  1.0000
  O   O73       1.0  0.6233852372857573  0.5132149844692325  0.8686604344268425  1.0000
  O   O74       1.0  0.6699105662740231  0.5753746433460445  0.7270572851038843  1.0000
  O   O75       1.0  0.3888416042795895  0.5132339677180783  0.8678360128890115  1.0000
  O   O76       1.0  0.3452446434872331  0.5673816554192234  0.7038799978566246  1.0000
  O   O77       1.0  0.7625158131407468  0.5003052390424853  0.35370486642068316  1.0000
  O   O78       1.0  0.7571634749302576  0.5122628786795419  0.6160131338500072  1.0000
  O   O79       1.0  0.2555191845977321  0.4943173010846403  0.1142646954783819  1.0000
  O   O80       1.0  0.2593433100467159  0.5091486605412573  0.8638250244110097  1.0000
