data_image0
_chemical_formula_structural       Al16H80C128O80
_chemical_formula_sum              "Al16 H80 C128 O80"
_cell_length_a       21.63717
_cell_length_b       21.63649
_cell_length_c       10.288049999999998
_cell_angle_alpha    90.00093999999999
_cell_angle_beta     89.99906
_cell_angle_gamma    90.00852000000002

_space_group_name_H-M_alt    "P 1"
_space_group_IT_number       1

loop_
  _space_group_symop_operation_xyz
  'x, y, z'

loop_
  _atom_site_type_symbol
  _atom_site_label
  _atom_site_symmetry_multiplicity
  _atom_site_fract_x
  _atom_site_fract_y
  _atom_site_fract_z
  _atom_site_occupancy
  Al  Al1       1.0  0.6813504153760922  0.9898580938836907  0.9990693581385611  1.0000
  Al  Al2       1.0  0.31764663686347117  0.009181633484206086  0.9983980482205631  1.0000
  Al  Al3       1.0  0.7504672511080401  0.9251249407388308  0.7473128972029782  1.0000
  Al  Al4       1.0  0.24303500722280266  0.9389833533500371  0.7388545946069158  1.0000
  Al  Al5       1.0  0.7478140658181535  0.06318317080244623  0.25146783313613796  1.0000
  Al  Al6       1.0  0.24926845196117386  0.07807292184962931  0.245400535638867  1.0000
  Al  Al7       1.0  0.17340291522182463  0.009970832370109465  0.49521021586900316  1.0000
  Al  Al8       1.0  0.8173627073306282  0.9952259445099643  0.5002160342713107  1.0000
  Al  Al9       1.0  0.24958494831186132  0.5773411909844612  0.7474282825287026  1.0000
  Al  Al10      1.0  0.17765919919102527  0.5094574197535109  0.49517211341031514  1.0000
  Al  Al11      1.0  0.25342926759089246  0.4418493741586188  0.2521295396793441  1.0000
  Al  Al12      1.0  0.7516462036202789  0.5652369990242255  0.7465073966462906  1.0000
  Al  Al13      1.0  0.6838877897102399  0.4948722634386079  0.985131604138669  1.0000
  Al  Al14      1.0  0.750772448602915  0.43090087955807743  0.24578141053751681  1.0000
  Al  Al15      1.0  0.3197299424909812  0.5118549006703556  0.9977326665396963  1.0000
  Al  Al16      1.0  0.8250925173725255  0.49507258263431236  0.5049430544561939  1.0000
  H   H1        1.0  0.7418402365054741  0.46813452816115086  0.6465049500916102  1.0000
  H   H2        1.0  0.725797923533458  0.506239771539869  0.41616938984085966  1.0000
  H   H3        1.0  0.21442344867859342  0.012367083063711575  0.900951717040108  1.0000
  H   H4        1.0  0.27920611170292486  0.5051254939203363  0.5924754294196081  1.0000
  H   H5        1.0  0.27180054481829646  0.5365702223753303  0.36739610723287863  1.0000
  H   H6        1.0  0.7836468005133921  0.5154645087097202  0.9236385478839328  1.0000
  H   H7        1.0  0.7363654468614678  0.533507718229103  0.15976832737422095  1.0000
  H   H8        1.0  0.2497632627691191  0.47783926795812337  0.826126636465347  1.0000
  H   H9        1.0  0.714511197492162  0.9891324764249602  0.4032209690968071  1.0000
  H   H10       1.0  0.7522545020371545  0.9564429720914898  0.16794357438630145  1.0000
  H   H11       1.0  0.7827052246434585  0.9899356359338505  0.9394904255520905  1.0000
  H   H12       1.0  0.7325329985138634  0.021116195314386896  0.6329264983891404  1.0000
  H   H13       1.0  0.2515757049905071  0.9791024592282456  0.17162580376992567  1.0000
  H   H14       1.0  0.2371517265256303  0.044835988477222546  0.6634541464939341  1.0000
  H   H15       1.0  0.269631607296091  0.01573591635786009  0.4250014522846127  1.0000
  H   H16       1.0  0.22550138130002043  0.5268338141122677  0.11901209367465274  1.0000
  H   H17       1.0  0.5879786153883876  0.8995030750027874  0.5177248653956226  1.0000
  H   H18       1.0  0.39110132046499274  0.8952527239756921  0.5510471470809041  1.0000
  H   H19       1.0  0.4940003796957209  0.9806719251598885  0.8582958784586371  1.0000
  H   H20       1.0  0.49199097490261884  0.881006594422042  0.41353829162426037  1.0000
  H   H21       1.0  0.5970005256591729  0.0770978170120354  0.4639583090366562  1.0000
  H   H22       1.0  0.3970861381889766  0.07294267202345786  0.48047865254643113  1.0000
  H   H23       1.0  0.49552988087854744  0.027450663215328307  0.13020486587453411  1.0000
  H   H24       1.0  0.49622170045487285  0.08722491551320821  0.5894194537965831  1.0000
  H   H25       1.0  0.10441472167068241  0.8991739603620121  0.9519138780075508  1.0000
  H   H26       1.0  0.9048156406999044  0.8975750504578625  0.9622967503719684  1.0000
  H   H27       1.0  0.9931773345185421  0.9928148501433941  0.654114816880853  1.0000
  H   H28       1.0  0.01184511420675971  0.8799365154996872  0.07316680228056613  1.0000
  H   H29       1.0  0.08699605710201082  0.10492021195091948  0.034555102288156975  1.0000
  H   H30       1.0  0.8877903397742509  0.07315626853052055  0.04897438971774013  1.0000
  H   H31       1.0  0.002128959586911372  0.020471168326163906  0.37279730571217784  1.0000
  H   H32       1.0  0.9814723979059483  0.10857007728017745  0.9216870070180347  1.0000
  H   H33       1.0  0.141419424847884  0.8566372053659386  0.2799368967661575  1.0000
  H   H34       1.0  0.15517386822783755  0.6570648191150995  0.2677205447816878  1.0000
  H   H35       1.0  0.2285125339438904  0.766158462166828  0.5991990680118209  1.0000
  H   H36       1.0  0.14065609577272475  0.7505805465962283  0.15312173156467465  1.0000
  H   H37       1.0  0.17855329944203702  0.1617458245651737  0.7303618433057933  1.0000
  H   H38       1.0  0.1518103090029774  0.35727429655575804  0.7188791736033918  1.0000
  H   H39       1.0  0.2208829689758068  0.26459598634493753  0.37733279397405034  1.0000
  H   H40       1.0  0.13927948403358198  0.2567891926064538  0.8383808031960616  1.0000
  H   H41       1.0  0.6615965094522378  0.84724201841515  0.22366663270680742  1.0000
  H   H42       1.0  0.6800116588460821  0.6435162878548286  0.22548412776223895  1.0000
  H   H43       1.0  0.7303488982992128  0.7446248500934094  0.8925883964863435  1.0000
  H   H44       1.0  0.6479837737836239  0.7482953278504643  0.34142286642709785  1.0000
  H   H45       1.0  0.6651882269221753  0.13452534190594126  0.7938576748944619  1.0000
  H   H46       1.0  0.6771048988330937  0.33212367661272163  0.7697149306361385  1.0000
  H   H47       1.0  0.7114457202347186  0.24159618215219578  0.13463593979158045  1.0000
  H   H48       1.0  0.6584110398382363  0.23785240884887385  0.6605093678421824  1.0000
  H   H49       1.0  0.33593330498859747  0.8577323290928942  0.20707261439955343  1.0000
  H   H50       1.0  0.3338946762401571  0.6595679288976538  0.21995601601945913  1.0000
  H   H51       1.0  0.2653107854647205  0.7567785487848846  0.8838025945098442  1.0000
  H   H52       1.0  0.36982328485655797  0.7580213264567804  0.3125019494331025  1.0000
  H   H53       1.0  0.35635259861534674  0.1620145493328519  0.802657213196119  1.0000
  H   H54       1.0  0.3452611112857816  0.35434140337508957  0.7739078379423442  1.0000
  H   H55       1.0  0.275540545226582  0.25857959685211807  0.11667129925719938  1.0000
  H   H56       1.0  0.36989192685879985  0.25783556201498536  0.6814197298697673  1.0000
  H   H57       1.0  0.8365098578649632  0.8469197529832465  0.2630552214198343  1.0000
  H   H58       1.0  0.8427774718608741  0.6499569053487159  0.27060374227858786  1.0000
  H   H59       1.0  0.7831462422569423  0.7434573859460242  0.618497233364189  1.0000
  H   H60       1.0  0.8612227491264488  0.7537045286598879  0.16074155164924825  1.0000
  H   H61       1.0  0.8648113161032008  0.15151213473947117  0.6902156980099254  1.0000
  H   H62       1.0  0.8332267259769532  0.34959686190996236  0.716532059232204  1.0000
  H   H63       1.0  0.7752393263732581  0.246033434701072  0.37775601508992473  1.0000
  H   H64       1.0  0.8859071743802893  0.24448178818954913  0.8058517962326367  1.0000
  H   H65       1.0  0.09995834500533986  0.4407764596559199  0.00139925058722247  1.0000
  H   H66       1.0  0.9103260180714768  0.39127538753174346  0.05117263525562985  1.0000
  H   H67       1.0  0.007426221610892236  0.49398189228161465  0.350994265285628  1.0000
  H   H68       1.0  0.003972889357406029  0.39058751906821854  0.9215780330141855  1.0000
  H   H69       1.0  0.09646072298338595  0.6122514974904699  0.9615721222838463  1.0000
  H   H70       1.0  0.9099120759140937  0.5662392084589902  0.9977740731005931  1.0000
  H   H71       1.0  0.0015895331345548956  0.49631196892978335  0.670791724559779  1.0000
  H   H72       1.0  0.009722927090875362  0.6091533613434239  0.09537389595346675  1.0000
  H   H73       1.0  0.6037677811680123  0.42674569702563186  0.46713316530278925  1.0000
  H   H74       1.0  0.4038316400540906  0.4093834945315521  0.4643097284019366  1.0000
  H   H75       1.0  0.49722117297242924  0.48495063113511994  0.13098380746231378  1.0000
  H   H76       1.0  0.5088531829353513  0.40537917153385694  0.5871839961533768  1.0000
  H   H77       1.0  0.5972913030957647  0.586122300656473  0.5168042147375729  1.0000
  H   H78       1.0  0.4017156301682728  0.5865281464813681  0.5058955430232827  1.0000
  H   H79       1.0  0.49912093851376577  0.518604519906796  0.8443557994311637  1.0000
  H   H80       1.0  0.5017894640435561  0.6110104105362905  0.400157911470874  1.0000
  C   C1        1.0  0.5466500451193836  0.9110463346196966  0.574838010273236  1.0000
  C   C2        1.0  0.5502840973929818  0.9394382454445483  0.7015128427585686  1.0000
  C   C3        1.0  0.609237528768201  0.9539207206852574  0.7721287554140782  1.0000
  C   C4        1.0  0.4955002412994818  0.9563516513224918  0.7606086111659559  1.0000
  C   C5        1.0  0.4909046186689397  0.8980080954296725  0.5133978967269264  1.0000
  C   C6        1.0  0.43711182932946  0.910646912213307  0.58485920962858  1.0000
  C   C7        1.0  0.4375466739413618  0.9400159258003403  0.7056909435659683  1.0000
  C   C8        1.0  0.3752780427895897  0.9516904400371441  0.7703249889077924  1.0000
  C   C9        1.0  0.5508536793687058  0.07192423028667329  0.4206059788944008  1.0000
  C   C10       1.0  0.5533941622858168  0.0476426510289858  0.29723086793152725  1.0000
  C   C11       1.0  0.6148862313247467  0.038764651590982004  0.23741906878926006  1.0000
  C   C12       1.0  0.49781441576505653  0.04248672120217299  0.22918871123629447  1.0000
  C   C13       1.0  0.496422830922582  0.07550167885808241  0.489812380514884  1.0000
  C   C14       1.0  0.43928027035748185  0.07310588915538904  0.42457615691754336  1.0000
  C   C15       1.0  0.4415711762756797  0.056988251404850226  0.2898052508300785  1.0000
  C   C16       1.0  0.3804452116465319  0.048259173017852666  0.22536440925384021  1.0000
  C   C17       1.0  0.06264071627092221  0.9178765168025459  0.908722342184962  1.0000
  C   C18       1.0  0.05656785825102038  0.9487075724457419  0.7958989353865524  1.0000
  C   C19       1.0  0.10884643344149351  0.9603346179910214  0.7203005216726504  1.0000
  C   C20       1.0  0.9983613002684378  0.9670041248397876  0.7483083268522077  1.0000
  C   C21       1.0  0.006465057684576614  0.9002779496271184  0.9775857711331749  1.0000
  C   C22       1.0  0.9482644068375794  0.9157450371782253  0.9265162749564071  1.0000
  C   C23       1.0  0.9444404253889788  0.9475445300088138  0.8084860505380972  1.0000
  C   C24       1.0  0.8867048846339564  0.9552851778139165  0.7314956636121818  1.0000
  C   C25       1.0  0.04672645114951215  0.07866722528161302  0.07356124146010862  1.0000
  C   C26       1.0  0.05359064341500393  0.05268411840486022  0.19831772790267213  1.0000
  C   C27       1.0  0.11326875042424621  0.0533151492253481  0.26801299184413496  1.0000
  C   C28       1.0  0.000972939155710609  0.034167218938073486  0.26553849084473746  1.0000
  C   C29       1.0  0.9888643975866676  0.08476562077992374  0.01982720438323064  1.0000
  C   C30       1.0  0.9370362547957013  0.06717981089188964  0.08011592383608347  1.0000
  C   C31       1.0  0.944787346214667  0.04396054441876349  0.20501813954710932  1.0000
  C   C32       1.0  0.8862365618020354  0.032871780697214435  0.27705631006527875  1.0000
  C   C33       1.0  0.16496366110180827  0.8116614390361372  0.3090449464043875  1.0000
  C   C34       1.0  0.19301117698369877  0.8129518345516502  0.43389180274214495  1.0000
  C   C35       1.0  0.19725324272975756  0.8749367865989908  0.5055923135482276  1.0000
  C   C36       1.0  0.20997326712491257  0.7582675598173969  0.5039885217699567  1.0000
  C   C37       1.0  0.15686661736103388  0.7564318923389467  0.24954323031973163  1.0000
  C   C38       1.0  0.17054521671300021  0.7003375178740029  0.31739782377406656  1.0000
  C   C39       1.0  0.19870065917299864  0.7016865542797931  0.43947759402576675  1.0000
  C   C40       1.0  0.20611392906997975  0.6401025308379211  0.5096794058554498  1.0000
  C   C41       1.0  0.18196072715668354  0.20497497744810292  0.6753950760221791  1.0000
  C   C42       1.0  0.20577780221096403  0.20201904145017482  0.5439140460540088  1.0000
  C   C43       1.0  0.21434438103369752  0.14250908990211766  0.4753123479489317  1.0000
  C   C44       1.0  0.2098541064934443  0.25915266606664034  0.4816013657917117  1.0000
  C   C45       1.0  0.16315276135923598  0.2583879915272889  0.7398778439109952  1.0000
  C   C46       1.0  0.16563004943895102  0.3136821263149285  0.6736374552869702  1.0000
  C   C47       1.0  0.18696765094294437  0.31336731643445626  0.5443381847392966  1.0000
  C   C48       1.0  0.19851421799630725  0.3738065928034593  0.47236866765887187  1.0000
  C   C49       1.0  0.6812842862715974  0.80346580662513  0.18510241207152928  1.0000
  C   C50       1.0  0.7024728527598565  0.7997302829154747  0.05337522175220581  1.0000
  C   C51       1.0  0.7078321697597312  0.8614049713672384  0.9840677477971634  1.0000
  C   C52       1.0  0.7183271660166259  0.7435304466670348  0.9921458092395521  1.0000
  C   C53       1.0  0.6716018771143487  0.7451592408406017  0.24646954094142284  1.0000
  C   C54       1.0  0.6871205635527451  0.687835169202578  0.18579791413478963  1.0000
  C   C55       1.0  0.7061197165769434  0.6886213928079287  0.05673413719383954  1.0000
  C   C56       1.0  0.7113309794578265  0.6277729653704075  0.9808943854973314  1.0000
  C   C57       1.0  0.6738545681772988  0.18099439350252342  0.8339086204196965  1.0000
  C   C58       1.0  0.6929282099169681  0.18371305930913556  0.9646545013555395  1.0000
  C   C59       1.0  0.7060352791977662  0.12625674103164405  0.026810366403179454  1.0000
  C   C60       1.0  0.7071044619128384  0.23996457495395038  0.024880904551288944  1.0000
  C   C61       1.0  0.6692310950599203  0.23624184682563704  0.7671762406018727  1.0000
  C   C62       1.0  0.6841766058621283  0.29225464414171354  0.8258720605252315  1.0000
  C   C63       1.0  0.6967090128740993  0.2953064180224235  0.9612957492101573  1.0000
  C   C64       1.0  0.703869991231663  0.3583046433652716  0.013850387589324298  1.0000
  C   C65       1.0  0.32856790816301595  0.8142360295280987  0.16002302287052053  1.0000
  C   C66       1.0  0.2964199299091154  0.8134211548266199  0.04051638455413596  1.0000
  C   C67       1.0  0.28133157356336336  0.8740758013110893  0.9708677137735586  1.0000
  C   C68       1.0  0.28380471012985975  0.7584177592105812  0.9810971722256776  1.0000
  C   C69       1.0  0.3466650228665296  0.7566198604387359  0.21961857500770918  1.0000
  C   C70       1.0  0.3292048652561799  0.7017678459182044  0.16486364087037497  1.0000
  C   C71       1.0  0.29841002584227044  0.7025418267746002  0.039176742930727336  1.0000
  C   C72       1.0  0.2952074642422274  0.6399400266198666  0.9713907011231  1.0000
  C   C73       1.0  0.33824785408338465  0.20422127093748027  0.8390389123617268  1.0000
  C   C74       1.0  0.3080012070509681  0.2039663039952574  0.9616400360284516  1.0000
  C   C75       1.0  0.29782006317829396  0.14282641017300793  0.02596133864744822  1.0000
  C   C76       1.0  0.2923571950302703  0.2623388062990014  0.017280851089161293  1.0000
  C   C77       1.0  0.3505900245586931  0.2604170378092629  0.777677337508388  1.0000
  C   C78       1.0  0.3327977320511941  0.3159175975827939  0.8329817207640217  1.0000
  C   C79       1.0  0.30353488712423965  0.3179800334673671  0.9577310435555513  1.0000
  C   C80       1.0  0.2924923858505952  0.3778660344649451  0.022668948932282013  1.0000
  C   C81       1.0  0.8295346679034634  0.8026082422653619  0.3220263734032786  1.0000
  C   C82       1.0  0.8105609004186641  0.8027287746197341  0.455807087957582  1.0000
  C   C83       1.0  0.7961866705786775  0.8614798124251527  0.526841673733961  1.0000
  C   C84       1.0  0.7996146311850715  0.7442947267513922  0.515960664210278  1.0000
  C   C85       1.0  0.8396527956995367  0.7482493260808023  0.25712160426046704  1.0000
  C   C86       1.0  0.8301329121022919  0.6925290743703364  0.3196618767293174  1.0000
  C   C87       1.0  0.811531865411137  0.6879773277783386  0.447958034927928  1.0000
  C   C88       1.0  0.8019773408717132  0.6277350298165112  0.517742754111176  1.0000
  C   C89       1.0  0.8510042236304199  0.1964744599697581  0.647548807771432  1.0000
  C   C90       1.0  0.8157575032662551  0.19105806272965142  0.5368990937530944  1.0000
  C   C91       1.0  0.7999025276290027  0.12937201207776444  0.47359493599965513  1.0000
  C   C92       1.0  0.7983385588627895  0.24453571987511535  0.47806616135454544  1.0000
  C   C93       1.0  0.8615318120436449  0.2510544494346499  0.7172518613328929  1.0000
  C   C94       1.0  0.8354382584797878  0.3057695981832365  0.6656148776340415  1.0000
  C   C95       1.0  0.8082057520978722  0.30192486700489024  0.5414351486918397  1.0000
  C   C96       1.0  0.7917450822324755  0.3612988129251506  0.4775756145549714  1.0000
  C   C97       1.0  0.05754610171197225  0.439578270458865  0.06001273129175679  1.0000
  C   C98       1.0  0.05720690704618075  0.46715853105179916  0.1873279212794124  1.0000
  C   C99       1.0  0.11768685974133976  0.4789357881355439  0.25406289342522914  1.0000
  C   C100      1.0  0.0020059452604008765  0.4714881872852068  0.25726539438594254  1.0000
  C   C101      1.0  0.004963858330426119  0.41155539211526715  0.013613860745009304  1.0000
  C   C102      1.0  0.9516050247574627  0.411071652586897  0.09304333573977683  1.0000
  C   C103      1.0  0.9478339931053104  0.4442832785384323  0.20707897031734326  1.0000
  C   C104      1.0  0.8871097640358173  0.44955033263695215  0.27055354228926637  1.0000
  C   C105      1.0  0.0586870222311833  0.5856260741839749  0.9244858036809348  1.0000
  C   C106      1.0  0.05785933097177735  0.5535210630404697  0.8052354947953666  1.0000
  C   C107      1.0  0.11882830197447215  0.5541393315716056  0.7318227362839617  1.0000
  C   C108      1.0  0.004994416814464483  0.5274417841263229  0.7505951440825217  1.0000
  C   C109      1.0  0.006987637507218334  0.5870209045069037  0.9994554529543705  1.0000
  C   C110      1.0  0.9502523748646223  0.5654986147782973  0.9406663685153592  1.0000
  C   C111      1.0  0.9502270466986655  0.5378521618130706  0.8172585516461097  1.0000
  C   C112      1.0  0.8906061546497368  0.5305464602640158  0.7487787580807984  1.0000
  C   C113      1.0  0.5604785274078806  0.4323037643370755  0.41852302634209326  1.0000
  C   C114      1.0  0.5582255833194122  0.4531855481862204  0.2852725872045567  1.0000
  C   C115      1.0  0.6186747364812453  0.4581964150768396  0.22252237213233822  1.0000
  C   C116      1.0  0.5020107426442101  0.45779029517912867  0.21826187475802566  1.0000
  C   C117      1.0  0.5048627977872485  0.4139317742728914  0.479052728294124  1.0000
  C   C118      1.0  0.44804411823161255  0.4154586292853609  0.41394813897153554  1.0000
  C   C119      1.0  0.4464907029647888  0.4364303225965301  0.28410578785937174  1.0000
  C   C120      1.0  0.38566049518771406  0.45107492989486464  0.2190190794763247  1.0000
  C   C121      1.0  0.5570452186856506  0.5779382216210435  0.5602249174091403  1.0000
  C   C122      1.0  0.5564304250110633  0.5522636122308233  0.6874269158784505  1.0000
  C   C123      1.0  0.6140671858366696  0.5461306739623246  0.7575491956296325  1.0000
  C   C124      1.0  0.5003125747183576  0.5432485112546932  0.7543854872486703  1.0000
  C   C125      1.0  0.5013347782181284  0.5902916144980853  0.49503530614359514  1.0000
  C   C126      1.0  0.4460726826102114  0.5769829162387979  0.557291066970221  1.0000
  C   C127      1.0  0.44404761475020005  0.5557509843378865  0.6891505690493402  1.0000
  C   C128      1.0  0.3838674188309226  0.5444651803377952  0.7525376667185293  1.0000
  O   O1        1.0  0.7471952779396795  0.9796794272743842  0.8840698813135378  1.0000
  O   O2        1.0  0.6086210194812964  0.9826107992281258  0.883828488629728  1.0000
  O   O3        1.0  0.6585044412353709  0.932871117496536  0.7180058992703142  1.0000
  O   O4        1.0  0.3752150642310425  0.987072034286414  0.869409684284889  1.0000
  O   O5        1.0  0.3283993818520708  0.9273644645883566  0.7159363292346195  1.0000
  O   O6        1.0  0.7449542344967092  0.9982650762852577  0.12900331941982923  1.0000
  O   O7        1.0  0.6188968610198718  0.00405814574213199  0.13900551711790546  1.0000
  O   O8        1.0  0.6847539761721944  0.07725205722151213  0.9700372910984842  1.0000
  O   O9        1.0  0.6748857711091444  0.9037522023662448  0.034147472076296745  1.0000
  O   O10       1.0  0.6610280224367321  0.06551610972459727  0.2970889955650056  1.0000
  O   O11       1.0  0.3817216820909184  0.01562169573698543  0.12544237443901562  1.0000
  O   O12       1.0  0.3337977324865169  0.07340233610290829  0.28059404656634507  1.0000
  O   O13       1.0  0.2369832490039123  0.0038208411976132783  0.6179854658279293  1.0000
  O   O14       1.0  0.10710898058686089  0.9996585751128578  0.6281327697415082  1.0000
  O   O15       1.0  0.15965634560451022  0.9392954076274931  0.7639146691661749  1.0000
  O   O16       1.0  0.8841243553211356  0.9902303424153446  0.635182820044483  1.0000
  O   O17       1.0  0.8426520412637971  0.9213734811647414  0.77672323930682  1.0000
  O   O18       1.0  0.23590248258486887  0.012751245257387802  0.36558931877393813  1.0000
  O   O19       1.0  0.11221115025375207  0.021683760024734024  0.3759844646012603  1.0000
  O   O20       1.0  0.17875220564178732  0.09823468263505346  0.517860535420591  1.0000
  O   O21       1.0  0.16725021296003184  0.9205232027472346  0.45461047732647963  1.0000
  O   O22       1.0  0.16082714119814187  0.08326920305565375  0.21989182406858626  1.0000
  O   O23       1.0  0.8871914561369512  0.0030764745266197565  0.38420815908396294  1.0000
  O   O24       1.0  0.836826504491792  0.055692488194373904  0.2277210200796551  1.0000
  O   O25       1.0  0.23507866488870524  0.8795650659615506  0.5999801091228344  1.0000
  O   O26       1.0  0.24051736368328372  0.6384343072231182  0.61015745760269  1.0000
  O   O27       1.0  0.1783405007732305  0.5952661088428612  0.45667324335169446  1.0000
  O   O28       1.0  0.2544083199483965  0.0030006158475328615  0.8616582240935542  1.0000
  O   O29       1.0  0.24716632881839032  0.8748672992794393  0.8716015933450189  1.0000
  O   O30       1.0  0.2490679587912458  0.1399492888915507  0.376780738919737  1.0000
  O   O31       1.0  0.23091194067522  0.3758963431919836  0.3704668533906541  1.0000
  O   O32       1.0  0.17131954657243964  0.4216615220010389  0.5161320902823203  1.0000
  O   O33       1.0  0.25267954406220444  0.015359985349986867  0.11647049735591042  1.0000
  O   O34       1.0  0.2650980219413672  0.14298334558124032  0.12794751584160757  1.0000
  O   O35       1.0  0.7362987385264621  0.86185832926887  0.876896446112517  1.0000
  O   O36       1.0  0.7397851376889075  0.6289660781601975  0.8692141389676965  1.0000
  O   O37       1.0  0.6886513676706691  0.5810981889769211  0.037246672605899624  1.0000
  O   O38       1.0  0.7607366635266539  0.9878197257716057  0.6231994713989011  1.0000
  O   O39       1.0  0.7655177157460641  0.8643158649562882  0.6293623185873443  1.0000
  O   O40       1.0  0.7399964341595677  0.1263173081108477  0.12937508569244932  1.0000
  O   O41       1.0  0.735963285978322  0.3586448255142781  0.11830294568237398  1.0000
  O   O42       1.0  0.6849287662811946  0.4043781020534336  0.9469247595629657  1.0000
  O   O43       1.0  0.7541462946888003  0.006943372453762484  0.37803025364832593  1.0000
  O   O44       1.0  0.7679621278697697  0.1317493011499401  0.3722725464039073  1.0000
  O   O45       1.0  0.3112519613502927  0.9182595198251434  0.0161674126821665  1.0000
  O   O46       1.0  0.261241507239809  0.6401378408192261  0.8686119995922398  1.0000
  O   O47       1.0  0.3300322246658659  0.5982209097861464  0.01581683409818113  1.0000
  O   O48       1.0  0.31686525600754717  0.09525774321567995  0.9683819900448752  1.0000
  O   O49       1.0  0.2586569079451621  0.37441723883723255  0.127661500513067  1.0000
  O   O50       1.0  0.31591919095765625  0.4248946718421299  0.9692175021197886  1.0000
  O   O51       1.0  0.8185667724702271  0.9092906930273128  0.46402290728415485  1.0000
  O   O52       1.0  0.7665632519780678  0.6280636869512072  0.6163832438320762  1.0000
  O   O53       1.0  0.8330168671541908  0.5815010108289462  0.4635336046464971  1.0000
  O   O54       1.0  0.824589189856974  0.08089125194542912  0.5255605504886864  1.0000
  O   O55       1.0  0.757959170100585  0.3624269527909836  0.37451104738380125  1.0000
  O   O56       1.0  0.8130787668157027  0.40983539307933636  0.5391982097183518  1.0000
  O   O57       1.0  0.24854505664501544  0.499235871123006  0.3852994873729022  1.0000
  O   O58       1.0  0.11322028724262159  0.5065980809936359  0.3610551291060658  1.0000
  O   O59       1.0  0.16633375395486866  0.4599079419734325  0.1973043969018697  1.0000
  O   O60       1.0  0.8871430487999736  0.48280431691284514  0.37656277438801294  1.0000
  O   O61       1.0  0.8397894130031699  0.42707835749339246  0.2200675502752519  1.0000
  O   O62       1.0  0.2404759277154056  0.5116783575658025  0.6331669598955159  1.0000
  O   O63       1.0  0.11955594395554835  0.5207926525124151  0.6317998786698429  1.0000
  O   O64       1.0  0.16136626664006223  0.5863188074275294  0.7776854371968636  1.0000
  O   O65       1.0  0.8914833447627813  0.5046387376992764  0.6348073689141872  1.0000
  O   O66       1.0  0.8444745670028847  0.55897581309729  0.7938214785307098  1.0000
  O   O67       1.0  0.7428910795160856  0.4934610975765151  0.11925139363923908  1.0000
  O   O68       1.0  0.6184491357255114  0.4800272373733816  0.10675605972906212  1.0000
  O   O69       1.0  0.6656793901650682  0.43483678065156195  0.28011213308406857  1.0000
  O   O70       1.0  0.3842382032628985  0.49217139183141445  0.12485012906679838  1.0000
  O   O71       1.0  0.33762222271181563  0.4277476013043441  0.26437183438377254  1.0000
  O   O72       1.0  0.7491024646621235  0.5042174718743454  0.8666509029796233  1.0000
  O   O73       1.0  0.6153697560789886  0.5128164876466943  0.8608244081612532  1.0000
  O   O74       1.0  0.6608240004048023  0.5685227696920354  0.7044564297364848  1.0000
  O   O75       1.0  0.3794751723954592  0.5120573412559088  0.8560655588153445  1.0000
  O   O76       1.0  0.33684149541427116  0.575075790195039  0.7090843504807282  1.0000
  O   O77       1.0  0.7620671347026826  0.49425398723305985  0.36225056167135367  1.0000
  O   O78       1.0  0.7550459318572751  0.5083984138337209  0.6171148800509929  1.0000
  O   O79       1.0  0.2680191580139796  0.5111185659824832  0.13403180975705759  1.0000
  O   O80       1.0  0.25320595717264033  0.5151682097247754  0.8818639219717667  1.0000
