data_image0
_chemical_formula_structural       Al16H80C128O80
_chemical_formula_sum              "Al16 H80 C128 O80"
_cell_length_a       21.63717
_cell_length_b       21.63649
_cell_length_c       10.288049999999998
_cell_angle_alpha    90.00093999999999
_cell_angle_beta     89.99906
_cell_angle_gamma    90.00852000000002

_space_group_name_H-M_alt    "P 1"
_space_group_IT_number       1

loop_
  _space_group_symop_operation_xyz
  'x, y, z'

loop_
  _atom_site_type_symbol
  _atom_site_label
  _atom_site_symmetry_multiplicity
  _atom_site_fract_x
  _atom_site_fract_y
  _atom_site_fract_z
  _atom_site_occupancy
  Al  Al1       1.0  0.6816281546321986  0.9922667784004074  0.01084859327375321  1.0000
  Al  Al2       1.0  0.31335482147874705  0.012734627590450742  0.9927131059802221  1.0000
  Al  Al3       1.0  0.7500449574129844  0.9255515553643988  0.750411811964141  1.0000
  Al  Al4       1.0  0.24769872264475037  0.9331416257857404  0.7426550427006288  1.0000
  Al  Al5       1.0  0.7481157279963618  0.057856245037341596  0.25706879153112117  1.0000
  Al  Al6       1.0  0.2404909386019188  0.07461689031244643  0.2571865845045541  1.0000
  Al  Al7       1.0  0.1763030099903813  0.0007635534039242253  0.5008567805742324  1.0000
  Al  Al8       1.0  0.817776686780677  0.0009327032351098925  0.5165510501436311  1.0000
  Al  Al9       1.0  0.25407237053447496  0.5771387376770404  0.7493901441064974  1.0000
  Al  Al10      1.0  0.18279511000799004  0.5075956355150676  0.49810161900254213  1.0000
  Al  Al11      1.0  0.25575090338097706  0.4382808669575824  0.25082879075184067  1.0000
  Al  Al12      1.0  0.7539702573170565  0.5621013830394344  0.7354080211542653  1.0000
  Al  Al13      1.0  0.6787610669983143  0.4906008902655089  0.9895050850230066  1.0000
  Al  Al14      1.0  0.756562996201734  0.4267336661526395  0.23926228786431347  1.0000
  Al  Al15      1.0  0.3232713329532413  0.5093151560326662  0.9989245940675855  1.0000
  Al  Al16      1.0  0.8300459730191536  0.5035967820898984  0.4860065203168351  1.0000
  H   H1        1.0  0.7237368670300726  0.4805315312435066  0.592939786610843  1.0000
  H   H2        1.0  0.7289787481969935  0.502113464521022  0.40171371553523094  1.0000
  H   H3        1.0  0.21184676902879143  0.005524567885983187  0.9071759937511691  1.0000
  H   H4        1.0  0.2728571898381997  0.48644774089041154  0.6030691502927891  1.0000
  H   H5        1.0  0.26790987382113307  0.5274788474658606  0.34416724753018335  1.0000
  H   H6        1.0  0.7830644876933444  0.48384110910092976  0.8636021707117552  1.0000
  H   H7        1.0  0.763299561196455  0.5191614392860271  0.12831889622963333  1.0000
  H   H8        1.0  0.2406812794883692  0.4794505168238487  0.8505965671196255  1.0000
  H   H9        1.0  0.7150692563169061  0.9991619367032611  0.4196027596251731  1.0000
  H   H10       1.0  0.7483533009766312  0.95332158024903  0.18600076695923756  1.0000
  H   H11       1.0  0.7836333684425596  0.9925746520777806  0.9316437169900477  1.0000
  H   H12       1.0  0.7463126632166245  0.027771826437249705  0.6889501423406291  1.0000
  H   H13       1.0  0.24545664452026847  0.9720091894113179  0.1549172399462408  1.0000
  H   H14       1.0  0.2424775830051187  0.0359899138236158  0.6772981353974027  1.0000
  H   H15       1.0  0.27433977657331055  0.0013894895556725295  0.4055858458233536  1.0000
  H   H16       1.0  0.22651728541720945  0.5241504087212842  0.10370490523346308  1.0000
  H   H17       1.0  0.599357070503151  0.9244035834853768  0.524935164725424  1.0000
  H   H18       1.0  0.3965462764355848  0.9262475439509966  0.5282044723210375  1.0000
  H   H19       1.0  0.4971507128274996  0.9950820237022227  0.8511826684703793  1.0000
  H   H20       1.0  0.4976511273008809  0.8961966458747823  0.4110064542005493  1.0000
  H   H21       1.0  0.5991036587518187  0.05567633714663974  0.4737367850381408  1.0000
  H   H22       1.0  0.402607392725657  0.09262167203750597  0.46840426332462226  1.0000
  H   H23       1.0  0.49450776022875825  0.03600152899538608  0.12374543575727337  1.0000
  H   H24       1.0  0.5070075620377412  0.081832307375514  0.587992854975237  1.0000
  H   H25       1.0  0.0946161368875097  0.9033433732270915  0.974956816179877  1.0000
  H   H26       1.0  0.8961840236668096  0.9103906666160348  0.9693349879407485  1.0000
  H   H27       1.0  0.9906803841920835  0.979740314471724  0.6539537192967195  1.0000
  H   H28       1.0  0.9987812010492741  0.8723631633207831  0.08497710744361446  1.0000
  H   H29       1.0  0.09287057005465597  0.09527607202013466  0.0535471921450865  1.0000
  H   H30       1.0  0.8889699641977703  0.0898911151986505  0.03960367709232084  1.0000
  H   H31       1.0  0.9936479262637133  0.013233378908354404  0.35782572022790704  1.0000
  H   H32       1.0  0.9950779542058608  0.1306118237510691  0.9404817251669588  1.0000
  H   H33       1.0  0.17474229537037786  0.8553229208965666  0.26060510696599865  1.0000
  H   H34       1.0  0.1792633329179931  0.6565880381443899  0.2633558624549024  1.0000
  H   H35       1.0  0.23275910502138092  0.7576824915740435  0.6038153811141854  1.0000
  H   H36       1.0  0.15908518632933608  0.753502610530688  0.1413086095412876  1.0000
  H   H37       1.0  0.144319949508904  0.15679410963996693  0.7243813513742263  1.0000
  H   H38       1.0  0.1509491043525169  0.3567619423451333  0.7035520396914807  1.0000
  H   H39       1.0  0.2296133527894998  0.24761749770801708  0.39235074392973485  1.0000
  H   H40       1.0  0.1165385566295834  0.26517473315298457  0.8217429787253344  1.0000
  H   H41       1.0  0.6663470137551897  0.8412512752336639  0.21398726586597758  1.0000
  H   H42       1.0  0.678420737556627  0.6431426215247035  0.22117197628436516  1.0000
  H   H43       1.0  0.7188458400889435  0.7368668470200981  0.8746692767260767  1.0000
  H   H44       1.0  0.6545940672531937  0.7450318718186875  0.3275985372259105  1.0000
  H   H45       1.0  0.6592560168837792  0.1366459853461965  0.7911916740481032  1.0000
  H   H46       1.0  0.6539488938524453  0.3368891542553397  0.7884290173728684  1.0000
  H   H47       1.0  0.7367308084589006  0.23454755080663164  0.10933435979633808  1.0000
  H   H48       1.0  0.6299617052500082  0.23335269100162703  0.6864682998139238  1.0000
  H   H49       1.0  0.3382315017587248  0.857044633112033  0.21716348390620818  1.0000
  H   H50       1.0  0.34894788120532017  0.6599331249208864  0.22333366387394582  1.0000
  H   H51       1.0  0.25707320183579074  0.752731132770493  0.8998894681199586  1.0000
  H   H52       1.0  0.3774794715155866  0.7662359157536061  0.31402605069662864  1.0000
  H   H53       1.0  0.3102925966410684  0.15419839264078425  0.7837889631339362  1.0000
  H   H54       1.0  0.3215772129216821  0.3511809381703125  0.7642904711890111  1.0000
  H   H55       1.0  0.27477396039932683  0.2622737076837269  0.13421784306759896  1.0000
  H   H56       1.0  0.32170672085535945  0.2540292763058143  0.651426104247512  1.0000
  H   H57       1.0  0.8457244488992015  0.853994039029373  0.28099532960842893  1.0000
  H   H58       1.0  0.8481729518326997  0.6523491071184119  0.2773534742509916  1.0000
  H   H59       1.0  0.7588184807338904  0.7445957861888118  0.5896115008803874  1.0000
  H   H60       1.0  0.8676924113454698  0.7480986466984701  0.16359967539552797  1.0000
  H   H61       1.0  0.8632525924516125  0.15297651460956443  0.6921715049903946  1.0000
  H   H62       1.0  0.8636506785095519  0.3538990736123637  0.6937155439486301  1.0000
  H   H63       1.0  0.7567355366111045  0.2515116204208808  0.41585255623285067  1.0000
  H   H64       1.0  0.8979090401735299  0.2589717832568363  0.7890820313066856  1.0000
  H   H65       1.0  0.10652512615645372  0.4111568570380586  0.03381918051463939  1.0000
  H   H66       1.0  0.9116227887308784  0.4236062093174129  0.01712771225328627  1.0000
  H   H67       1.0  0.007330865106949469  0.4970119787120551  0.34426303438972083  1.0000
  H   H68       1.0  0.9978562095112475  0.39270200785399817  0.9152078812344375  1.0000
  H   H69       1.0  0.10186089548562917  0.5979501701090268  0.9631515440405808  1.0000
  H   H70       1.0  0.9003744865286378  0.5772343426959609  0.9669574508947014  1.0000
  H   H71       1.0  0.005701729648371277  0.5210044563474646  0.6369047615207363  1.0000
  H   H72       1.0  0.0016561222639692019  0.614872869034259  0.0832834074708607  1.0000
  H   H73       1.0  0.5998752168872796  0.399925373934682  0.44979546670606746  1.0000
  H   H74       1.0  0.3997514380127423  0.39827951635145553  0.4470653011248777  1.0000
  H   H75       1.0  0.5044774228307284  0.5022327556966467  0.14995210077859025  1.0000
  H   H76       1.0  0.48617270113140315  0.3713821240127017  0.5587380253349263  1.0000
  H   H77       1.0  0.6024428026883909  0.5775631599489514  0.506492158514231  1.0000
  H   H78       1.0  0.4008195340826121  0.6017229938985676  0.5274084837710009  1.0000
  H   H79       1.0  0.49590681347412513  0.5335296312844177  0.8560853643178504  1.0000
  H   H80       1.0  0.5016868731680995  0.6135582842498174  0.4082374406355232  1.0000
  C   C1        1.0  0.553524458070292  0.931670562464702  0.5721394852847813  1.0000
  C   C2        1.0  0.5566518006010034  0.9540171490826286  0.6981310833377491  1.0000
  C   C3        1.0  0.6164804461237245  0.9565348927297207  0.7729978686087464  1.0000
  C   C4        1.0  0.4974475559869585  0.9641060246796695  0.767243673205737  1.0000
  C   C5        1.0  0.4972932976169218  0.9178388810970178  0.5081303474814829  1.0000
  C   C6        1.0  0.44291055766526893  0.9281916785772193  0.576491123351475  1.0000
  C   C7        1.0  0.4427645156396565  0.954110734804206  0.7037988804436819  1.0000
  C   C8        1.0  0.3789944757931344  0.9666621785600096  0.7697754037092833  1.0000
  C   C9        1.0  0.555264218082747  0.058532341579620006  0.4208258884011206  1.0000
  C   C10       1.0  0.5524692696804964  0.04857626792933468  0.2907868965260771  1.0000
  C   C11       1.0  0.6136719377400428  0.034133791246040025  0.23236793859316018  1.0000
  C   C12       1.0  0.49605176728251793  0.050172028451679056  0.22475412742184198  1.0000
  C   C13       1.0  0.502764410046118  0.07963697762391024  0.48589801092970153  1.0000
  C   C14       1.0  0.44706514682433673  0.08174626501891857  0.42536958715963946  1.0000
  C   C15       1.0  0.4429161241576242  0.06838645597755741  0.2891328746264382  1.0000
  C   C16       1.0  0.38235949992606305  0.05570302645820227  0.22962333295772888  1.0000
  C   C17       1.0  0.051130546489340116  0.9096087902690694  0.9196816668412712  1.0000
  C   C18       1.0  0.052807408155459326  0.9409192499362409  0.8018823423506093  1.0000
  C   C19       1.0  0.11112680264989173  0.953309260306745  0.7226138337197734  1.0000
  C   C20       1.0  0.9972945297464885  0.9568835244526454  0.7427581944155102  1.0000
  C   C21       1.0  0.9969717927510741  0.8951741696199569  0.9869251794783773  1.0000
  C   C22       1.0  0.9421562696123047  0.910787322752134  0.9281314702562425  1.0000
  C   C23       1.0  0.9432202819927923  0.940048503194265  0.8029906097096393  1.0000
  C   C24       1.0  0.8804908948398629  0.9541320523813914  0.7359598672282568  1.0000
  C   C25       1.0  0.04530676170835322  0.08588362364931554  0.08807516003944921  1.0000
  C   C26       1.0  0.04665676464214835  0.056309389339416344  0.2072501825490562  1.0000
  C   C27       1.0  0.10875877681252251  0.04536198008696186  0.2644421062040101  1.0000
  C   C28       1.0  0.9926758157772111  0.038318873269562785  0.26996149617735604  1.0000
  C   C29       1.0  0.9901908541828569  0.09991644851118767  0.02716936446413308  1.0000
  C   C30       1.0  0.9328087241337811  0.08030936451177273  0.08220443332095013  1.0000
  C   C31       1.0  0.935763542952991  0.05054353439827802  0.2042791511088682  1.0000
  C   C32       1.0  0.8800949442142868  0.03508762085811858  0.2806883734796339  1.0000
  C   C33       1.0  0.18892468305369994  0.8116360219229536  0.3084695244340828  1.0000
  C   C34       1.0  0.20703975816384523  0.8102197547682334  0.44339479505131063  1.0000
  C   C35       1.0  0.2104361001747518  0.8709130732043927  0.5128589977128768  1.0000
  C   C36       1.0  0.21677240766909622  0.7538680155319243  0.5049669151489458  1.0000
  C   C37       1.0  0.17469123774359407  0.7557440226983306  0.24507280686607644  1.0000
  C   C38       1.0  0.1834799210495909  0.700671844710118  0.3119414078337176  1.0000
  C   C39       1.0  0.20587913314617165  0.6986649586326459  0.4366731607261848  1.0000
  C   C40       1.0  0.21391596990807707  0.637877874624349  0.5032123776024857  1.0000
  C   C41       1.0  0.16016675495929436  0.19923205300638433  0.6777896950225368  1.0000
  C   C42       1.0  0.19162845744370066  0.19531664803517915  0.5597559393227878  1.0000
  C   C43       1.0  0.20079572656997224  0.13588902531433844  0.48485439139024655  1.0000
  C   C44       1.0  0.21289102519516526  0.24860024604552372  0.49186591252587597  1.0000
  C   C45       1.0  0.1462958749405299  0.2577603110513702  0.7322802029565835  1.0000
  C   C46       1.0  0.16763285617304102  0.31060183367578825  0.6680665978343505  1.0000
  C   C47       1.0  0.19925884045631673  0.3095766496451335  0.5489412825093059  1.0000
  C   C48       1.0  0.20841906099478888  0.368389451105529  0.4739040878798322  1.0000
  C   C49       1.0  0.6713006881369193  0.7976058295869884  0.16126296338436263  1.0000
  C   C50       1.0  0.7002463187777489  0.7988734178560383  0.03333461832828322  1.0000
  C   C51       1.0  0.703795811337876  0.8578854281954907  0.9604853837859764  1.0000
  C   C52       1.0  0.709091512409448  0.7401891397572687  0.9766639676813496  1.0000
  C   C53       1.0  0.6665736966207064  0.7431724705217413  0.2296075262693823  1.0000
  C   C54       1.0  0.6834092458218527  0.6854211499086207  0.16829549919236036  1.0000
  C   C55       1.0  0.6980809202435986  0.6849101148587486  0.039862133262412905  1.0000
  C   C56       1.0  0.7101112280001415  0.6258195174873648  0.9714424757548468  1.0000
  C   C57       1.0  0.665207104965251  0.18120062496846553  0.8384416485457797  1.0000
  C   C58       1.0  0.6982666348565576  0.18347082837738682  0.9556057943580955  1.0000
  C   C59       1.0  0.7096479242814899  0.125465613572069  0.0262700861750025  1.0000
  C   C60       1.0  0.7066647570502909  0.23872271054252286  0.0217011406495968  1.0000
  C   C61       1.0  0.6478445711448321  0.23688701474450488  0.7809771892790478  1.0000
  C   C62       1.0  0.6633977586435613  0.2940275964121875  0.8380409788366406  1.0000
  C   C63       1.0  0.6888617538794028  0.29473071163518044  0.9606122241493448  1.0000
  C   C64       1.0  0.7042312890003221  0.355786440358097  0.02568020762643079  1.0000
  C   C65       1.0  0.32830418629308167  0.8140217935514946  0.16663285369543884  1.0000
  C   C66       1.0  0.2977243733340328  0.8130673607143972  0.05057384539733232  1.0000
  C   C67       1.0  0.2896455124784858  0.8720405983558611  0.9781685326867846  1.0000
  C   C68       1.0  0.279359543497883  0.7563295007351097  0.9999810715119646  1.0000
  C   C69       1.0  0.3465358187450627  0.7619595926476989  0.23076604124580716  1.0000
  C   C70       1.0  0.3314595592381207  0.7032947879456313  0.17449581703851846  1.0000
  C   C71       1.0  0.30025555562159906  0.6997896748557443  0.058690583751293754  1.0000
  C   C72       1.0  0.29499530408856545  0.6414691621391088  0.9766940686237132  1.0000
  C   C73       1.0  0.30793141947366676  0.19885008768066023  0.8306748103187587  1.0000
  C   C74       1.0  0.2955111565049601  0.20408799186388835  0.9682666824792706  1.0000
  C   C75       1.0  0.28239516240667545  0.14382199788506017  0.029358661756240093  1.0000
  C   C76       1.0  0.28634423327850933  0.26225223064804004  0.027809396345954425  1.0000
  C   C77       1.0  0.31962530742030226  0.2536858416107889  0.7563595406412438  1.0000
  C   C78       1.0  0.31481775738622125  0.3101385471918424  0.8158889082244903  1.0000
  C   C79       1.0  0.29512595221137816  0.31701942542145145  0.9468509068892127  1.0000
  C   C80       1.0  0.2877992274248083  0.37757157679478687  0.009749155576323274  1.0000
  C   C81       1.0  0.8335029207736857  0.8066834481093234  0.3242752018990797  1.0000
  C   C82       1.0  0.8017561248257163  0.8091907515370012  0.44044461984724675  1.0000
  C   C83       1.0  0.7915012314224227  0.8691182311998269  0.515580860457278  1.0000
  C   C84       1.0  0.7879059899524157  0.7530862996572171  0.4994116301323118  1.0000
  C   C85       1.0  0.8475129003806847  0.7517200103792804  0.2593453735856702  1.0000
  C   C86       1.0  0.8388800363374616  0.6960160579622309  0.32437137172720715  1.0000
  C   C87       1.0  0.8054553186764511  0.6963915182689093  0.45006985689670226  1.0000
  C   C88       1.0  0.7946777288543719  0.6378413573506344  0.5155041598191383  1.0000
  C   C89       1.0  0.8464449808465618  0.1974876659508619  0.6566790569464729  1.0000
  C   C90       1.0  0.8091225156275762  0.19579788218300284  0.5474765598452388  1.0000
  C   C91       1.0  0.7964775005864851  0.13227681866028318  0.489166483576029  1.0000
  C   C92       1.0  0.7897543499475738  0.2523697204041697  0.4947893518567594  1.0000
  C   C93       1.0  0.8644080457016498  0.2559431344074688  0.7105699993650273  1.0000
  C   C94       1.0  0.8437551574358513  0.3098927808482378  0.6572570129246805  1.0000
  C   C95       1.0  0.8043218064197526  0.3097074617886121  0.5495670347171326  1.0000
  C   C96       1.0  0.8002623935244418  0.3683836138306661  0.47575203282616474  1.0000
  C   C97       1.0  0.06077899090554866  0.4236970862548459  0.07500773132009228  1.0000
  C   C98       1.0  0.06189190139937284  0.4546380720606458  0.1988070567843703  1.0000
  C   C99       1.0  0.11872609569572098  0.46717860174763004  0.2709334481024236  1.0000
  C   C100      1.0  0.0071525676606136734  0.4702451856076281  0.2592026264178012  1.0000
  C   C101      1.0  0.007187002851402724  0.4114514875460827  0.010057677599530222  1.0000
  C   C102      1.0  0.953546239747405  0.4317042773783299  0.07025994529522409  1.0000
  C   C103      1.0  0.9514522677189171  0.45910524407439934  0.19016489816112025  1.0000
  C   C104      1.0  0.8895076972435225  0.46481983954924655  0.25230271146607525  1.0000
  C   C105      1.0  0.057857346636090656  0.5836745461218599  0.9245632274881883  1.0000
  C   C106      1.0  0.060310956574152606  0.5547888296352033  0.805999566704243  1.0000
  C   C107      1.0  0.12078497539305105  0.5502705523182774  0.7292587567147432  1.0000
  C   C108      1.0  0.005820196900018476  0.5371912063362795  0.7420257747633868  1.0000
  C   C109      1.0  0.00021890849696243916  0.5931473258017573  0.9895694162392135  1.0000
  C   C110      1.0  0.9484392837462107  0.5712989222359002  0.9284178248133055  1.0000
  C   C111      1.0  0.9505745050087406  0.5479897009807502  0.7972445295471295  1.0000
  C   C112      1.0  0.8914056499633882  0.5355219897481925  0.7275223790722543  1.0000
  C   C113      1.0  0.5524865233727144  0.4139709156022173  0.4167220378160863  1.0000
  C   C114      1.0  0.5571152181640475  0.44359645010413784  0.29420549383163697  1.0000
  C   C115      1.0  0.6173765612360659  0.45173806659090215  0.23561250680666843  1.0000
  C   C116      1.0  0.5016507353496572  0.46756383821535424  0.23849058379968152  1.0000
  C   C117      1.0  0.4969311134081473  0.3989561089604107  0.47621325336856846  1.0000
  C   C118      1.0  0.44228805453485465  0.41494312331207517  0.4086168759999559  1.0000
  C   C119      1.0  0.444923348884056  0.4530543594165796  0.29496394271185233  1.0000
  C   C120      1.0  0.3878684213702385  0.4604370426845628  0.21503424950261416  1.0000
  C   C121      1.0  0.5593173086336284  0.5794358999567089  0.56746574924997  1.0000
  C   C122      1.0  0.5564268913757465  0.561134214158299  0.698672219899245  1.0000
  C   C123      1.0  0.6162955351507616  0.544145460980935  0.7659613874466719  1.0000
  C   C124      1.0  0.4996125957565203  0.5553496353523519  0.7624301652996395  1.0000
  C   C125      1.0  0.5023602601745298  0.5922907009819292  0.5022302983938195  1.0000
  C   C126      1.0  0.4438384738137733  0.585956306487407  0.5656829838080314  1.0000
  C   C127      1.0  0.44338168020370344  0.5670847892578499  0.6957521971536241  1.0000
  C   C128      1.0  0.3854638240736905  0.5536740380964279  0.7629464497268564  1.0000
  O   O1        1.0  0.7442830443732068  0.9822523173933803  0.885436988783251  1.0000
  O   O2        1.0  0.6150337725281828  0.9854810747535506  0.8813220923732032  1.0000
  O   O3        1.0  0.6633295031731192  0.9319858503475963  0.7158513597797437  1.0000
  O   O4        1.0  0.3781839674371301  0.0029799529199037167  0.8683349665295345  1.0000
  O   O5        1.0  0.3354234391469935  0.9331044167202679  0.7301903365576268  1.0000
  O   O6        1.0  0.7483475144149156  0.9916128041675991  0.13518031797806934  1.0000
  O   O7        1.0  0.6107074431630262  0.002549341029152734  0.1262198891285975  1.0000
  O   O8        1.0  0.6825756279527115  0.07720918717024175  0.9795926305482785  1.0000
  O   O9        1.0  0.6866023647674079  0.9041763241192551  0.025946356216371244  1.0000
  O   O10       1.0  0.660870206282867  0.05799279831712429  0.2873104991514896  1.0000
  O   O11       1.0  0.38548061080211077  0.03102356351631081  0.11652153326651946  1.0000
  O   O12       1.0  0.3360739449338436  0.07270317438025678  0.29247202344562606  1.0000
  O   O13       1.0  0.23428647220600587  0.996516277213837  0.6273842731846221  1.0000
  O   O14       1.0  0.109359240839498  0.9890998177662313  0.6257909051504065  1.0000
  O   O15       1.0  0.16059057729702209  0.9291781213348659  0.766573583149618  1.0000
  O   O16       1.0  0.8804030223615412  0.9945214016680743  0.647209159344282  1.0000
  O   O17       1.0  0.8354653369763771  0.9198952532240834  0.7796048057852077  1.0000
  O   O18       1.0  0.23383866175459628  0.013100706581502301  0.3714340182083482  1.0000
  O   O19       1.0  0.1120655195380002  0.009317897913176755  0.3643173576147756  1.0000
  O   O20       1.0  0.1726860130391771  0.08863419935471364  0.5292482328007095  1.0000
  O   O21       1.0  0.17722586263093615  0.9149085178228428  0.4726662604972449  1.0000
  O   O22       1.0  0.1571787320611211  0.06855215952609392  0.21543798976448278  1.0000
  O   O23       1.0  0.88530473980889  0.007750656497458475  0.39410585981708574  1.0000
  O   O24       1.0  0.8298266793950204  0.05353754863625836  0.22737921089317698  1.0000
  O   O25       1.0  0.2482411872287039  0.8776875555669708  0.6097309744497912  1.0000
  O   O26       1.0  0.24263903421328928  0.6359792109715614  0.6087062477034363  1.0000
  O   O27       1.0  0.1903230884987201  0.5911583975390718  0.448593416754587  1.0000
  O   O28       1.0  0.25028125108992016  0.9957843456055281  0.8670670236245611  1.0000
  O   O29       1.0  0.2573130438024884  0.8703978748004273  0.8732193974968726  1.0000
  O   O30       1.0  0.23743881163110667  0.13411452732266363  0.3885195339326405  1.0000
  O   O31       1.0  0.24163226685578842  0.3663523645208689  0.3730338189484719  1.0000
  O   O32       1.0  0.17781634393293722  0.417326024009763  0.5146039221645301  1.0000
  O   O33       1.0  0.25367994640843805  0.01299000244020797  0.12310138464926136  1.0000
  O   O34       1.0  0.25610857438331536  0.14205056412340836  0.14224898113771295  1.0000
  O   O35       1.0  0.734968039039451  0.8561385289384894  0.8557940068690815  1.0000
  O   O36       1.0  0.7445123490702913  0.6249046349903608  0.8702003929227929  1.0000
  O   O37       1.0  0.6870292232418403  0.5771846222500251  0.025831668787721737  1.0000
  O   O38       1.0  0.7568765798738984  0.9925509081000297  0.6337350733865634  1.0000
  O   O39       1.0  0.754823892464572  0.8673717832500563  0.6094814538894624  1.0000
  O   O40       1.0  0.7410049423897416  0.12395883856898403  0.12752576925200432  1.0000
  O   O41       1.0  0.7463098183470069  0.3557289998971517  0.1178223317660992  1.0000
  O   O42       1.0  0.6771608447244497  0.401531401363811  0.9726395918267278  1.0000
  O   O43       1.0  0.7557841613171702  0.0016941037855149551  0.3847984264331335  1.0000
  O   O44       1.0  0.7661686740049104  0.13016368555044866  0.38420841763636115  1.0000
  O   O45       1.0  0.31662612595181133  0.920593382485835  0.027932890108168053  1.0000
  O   O46       1.0  0.2652129696502098  0.642537131219508  0.8667287447475205  1.0000
  O   O47       1.0  0.3271223301270861  0.5960816662859013  0.020793742259959083  1.0000
  O   O48       1.0  0.303984045761169  0.09804947971268393  0.9636305084703148  1.0000
  O   O49       1.0  0.25494713537230074  0.3761064229606528  0.11151440849419979  1.0000
  O   O50       1.0  0.3194951406232907  0.42227884934805626  0.9556681599181551  1.0000
  O   O51       1.0  0.827326097338233  0.9134451051190765  0.48099765177382964  1.0000
  O   O52       1.0  0.7618276079706724  0.6356069957716565  0.6228068372261387  1.0000
  O   O53       1.0  0.8233318871999414  0.5891755870359009  0.47567807226024555  1.0000
  O   O54       1.0  0.823276213690221  0.08599877318436012  0.5425726470518935  1.0000
  O   O55       1.0  0.7671386691995739  0.36717014215641414  0.3758628866539975  1.0000
  O   O56       1.0  0.8335291346934303  0.41435243065317573  0.5202793086581526  1.0000
  O   O57       1.0  0.25242400178605096  0.4903347482514198  0.3871134628109125  1.0000
  O   O58       1.0  0.1164745221789918  0.49774125750281634  0.37598285788278546  1.0000
  O   O59       1.0  0.16768789211947732  0.4433886548259689  0.21936378619926583  1.0000
  O   O60       1.0  0.8890535610579757  0.49726734990290505  0.35709863005999254  1.0000
  O   O61       1.0  0.8438882948090483  0.4304454069367724  0.21462084851786536  1.0000
  O   O62       1.0  0.23963111697144462  0.5108568957885682  0.6353041044472936  1.0000
  O   O63       1.0  0.116423346990845  0.5249693065055874  0.6172904050533488  1.0000
  O   O64       1.0  0.16697231894347941  0.5791077066782369  0.7729596825579297  1.0000
  O   O65       1.0  0.8907099751005356  0.5082852674502527  0.6166967318109321  1.0000
  O   O66       1.0  0.8414994733618054  0.5620066115013627  0.7740221715624487  1.0000
  O   O67       1.0  0.7494240702175436  0.4764647179465641  0.0964746886209837  1.0000
  O   O68       1.0  0.6177657118826105  0.48384061085441876  0.13488020473981419  1.0000
  O   O69       1.0  0.6656484765892507  0.4285459562342788  0.2939891535144146  1.0000
  O   O70       1.0  0.3926436755810503  0.48880741194873073  0.10780663879923662  1.0000
  O   O71       1.0  0.3418828458251519  0.4317721645735414  0.2650352885856706  1.0000
  O   O72       1.0  0.7426134767018427  0.496584417057546  0.8464899978464037  1.0000
  O   O73       1.0  0.6170782732069511  0.5060967430294392  0.861561505084581  1.0000
  O   O74       1.0  0.6641595122872989  0.5718184089652565  0.7175837638801121  1.0000
  O   O75       1.0  0.38547634163597305  0.5190217758617428  0.8644681725296309  1.0000
  O   O76       1.0  0.3384797007977935  0.5784658682293674  0.7150020345915543  1.0000
  O   O77       1.0  0.7664770366490609  0.4962423004862927  0.3518177682820442  1.0000
  O   O78       1.0  0.7592891904280927  0.5077582246698009  0.5972271238624962  1.0000
  O   O79       1.0  0.2640519652192759  0.5057329477964242  0.13496366759236944  1.0000
  O   O80       1.0  0.25928866048306687  0.5172345209925873  0.8800423503420561  1.0000
